CHEBI:18255
 OpenBabel04252409173D

 30 32  0  0  1  0  0  0  0  0999 V2000
    2.8562    0.7948    1.8233 O   0  0  0  0  0  0  0  0  0  0  0  0
    4.0587    0.6143    1.0882 C   0  0  0  0  0  0  0  0  0  0  0  0
    4.1066    1.5091   -0.1523 C   0  0  1  0  0  0  0  0  0  0  0  0
    3.1545    1.0149   -1.1240 O   0  0  0  0  0  0  0  0  0  0  0  0
    2.2093    2.0678   -1.3996 C   0  0  1  0  0  0  0  0  0  0  0  0
    0.9029    1.4894   -1.6317 N   0  0  0  0  0  0  0  0  0  0  0  0
    0.1507    1.6839   -2.7625 C   0  0  0  0  0  0  0  0  0  0  0  0
   -0.9998    1.0467   -2.7084 N   0  0  0  0  0  0  0  0  0  0  0  0
   -0.9936    0.4192   -1.4871 C   0  0  0  0  0  0  0  0  0  0  0  0
   -1.9234   -0.3908   -0.8443 C   0  0  0  0  0  0  0  0  0  0  0  0
   -1.6469   -0.8746    0.3932 N   0  0  0  0  0  0  0  0  0  0  0  0
   -0.4613   -0.5428    0.9470 C   0  0  0  0  0  0  0  0  0  0  0  0
    0.5236    0.2234    0.4249 N   0  0  0  0  0  0  0  0  0  0  0  0
    0.1844    0.6753   -0.7979 C   0  0  0  0  0  0  0  0  0  0  0  0
    2.2755    3.0573   -0.2385 C   0  0  2  0  0  0  0  0  0  0  0  0
    1.9128    4.3850   -0.6237 O   0  0  0  0  0  0  0  0  0  0  0  0
    3.7494    2.9711    0.1293 C   0  0  2  0  0  0  0  0  0  0  0  0
    4.4629    3.8443   -0.7726 O   0  0  0  0  0  0  0  0  0  0  0  0
    2.1250    0.4426    1.2679 H   0  0  0  0  0  0  0  0  0  0  0  0
    4.1329   -0.4429    0.8132 H   0  0  0  0  0  0  0  0  0  0  0  0
    4.8900    0.8583    1.7568 H   0  0  0  0  0  0  0  0  0  0  0  0
    5.0974    1.4231   -0.6123 H   0  0  0  0  0  0  0  0  0  0  0  0
    2.5208    2.5494   -2.3355 H   0  0  0  0  0  0  0  0  0  0  0  0
    0.4871    2.2967   -3.5898 H   0  0  0  0  0  0  0  0  0  0  0  0
   -2.8757   -0.6568   -1.2837 H   0  0  0  0  0  0  0  0  0  0  0  0
   -0.2764   -0.9431    1.9405 H   0  0  0  0  0  0  0  0  0  0  0  0
    1.6426    2.7559    0.6011 H   0  0  0  0  0  0  0  0  0  0  0  0
    2.7401    4.7954   -0.9541 H   0  0  0  0  0  0  0  0  0  0  0  0
    3.9644    3.3100    1.1468 H   0  0  0  0  0  0  0  0  0  0  0  0
    5.3994    3.8381   -0.4995 H   0  0  0  0  0  0  0  0  0  0  0  0
  1  2  1  0  0  0  0
  1 19  1  0  0  0  0
  2  3  1  0  0  0  0
  2 20  1  0  0  0  0
  2 21  1  0  0  0  0
  3  4  1  0  0  0  0
  3 17  1  0  0  0  0
  3 22  1  6  0  0  0
  4  5  1  0  0  0  0
  5  6  1  0  0  0  0
  5 15  1  0  0  0  0
  5 23  1  6  0  0  0
  6  7  1  0  0  0  0
  6 14  1  0  0  0  0
  7  8  2  0  0  0  0
  7 24  1  0  0  0  0
  8  9  1  0  0  0  0
  9 10  1  0  0  0  0
  9 14  2  0  0  0  0
 10 11  2  0  0  0  0
 10 25  1  0  0  0  0
 11 12  1  0  0  0  0
 12 13  2  0  0  0  0
 12 26  1  0  0  0  0
 13 14  1  0  0  0  0
 15 16  1  0  0  0  0
 15 17  1  0  0  0  0
 15 27  1  1  0  0  0
 16 28  1  0  0  0  0
 17 18  1  0  0  0  0
 17 29  1  1  0  0  0
 18 30  1  0  0  0  0
M  END
$$$$
