CHEBI:17868
 OpenBabel04242423113D

 64 63  0  0  0  0  0  0  0  0999 V2000
    2.5146    0.5740    0.6634 C   0  0  0  0  0  0  0  0  0  0  0  0
    4.0345    0.5581    0.6301 C   0  0  0  0  0  0  0  0  0  0  0  0
    4.6199    0.8453   -0.7546 C   0  0  0  0  0  0  0  0  0  0  0  0
    4.3650   -0.2747   -1.7684 C   0  0  0  0  0  0  0  0  0  0  0  0
    4.9424    0.0260   -3.1569 C   0  0  0  0  0  0  0  0  0  0  0  0
    6.4720    0.0727   -3.1836 C   0  0  0  0  0  0  0  0  0  0  0  0
    7.0004    0.3809   -4.5868 C   0  0  0  0  0  0  0  0  0  0  0  0
    8.5299    0.4282   -4.5997 C   0  0  0  0  0  0  0  0  0  0  0  0
    9.0708    0.7943   -5.9828 C   0  0  0  0  0  0  0  0  0  0  0  0
   10.6009    0.8219   -5.9892 C   0  0  0  0  0  0  0  0  0  0  0  0
   11.1493    1.1853   -7.3704 C   0  0  0  0  0  0  0  0  0  0  0  0
   12.6808    1.1857   -7.3803 C   0  0  0  0  0  0  0  0  0  0  0  0
   13.2263    1.5258   -8.7694 C   0  0  0  0  0  0  0  0  0  0  0  0
   14.7535    1.6231   -8.8192 C   0  0  0  0  0  0  0  0  0  0  0  0
   15.4595    0.2954   -8.5647 C   0  0  0  0  0  0  0  0  0  0  0  0
   16.9496    0.4525   -8.7298 C   0  0  0  0  0  0  0  0  0  0  0  0
   17.7238    0.6989   -7.8141 O   0  0  0  0  0  0  0  0  0  0  0  0
   17.3096    0.3345  -10.0390 O   0  0  0  0  0  0  0  0  0  0  0  0
   18.7170    0.4504  -10.2571 C   0  0  0  0  0  0  0  0  0  0  0  0
   19.5007   -0.7401   -9.7134 C   0  0  0  0  0  0  0  0  0  0  0  0
   19.0047   -1.8662   -9.6252 O   0  0  0  0  0  0  0  0  0  0  0  0
   20.9311   -0.4689   -9.2968 C   0  0  0  0  0  0  0  0  0  0  0  0
   21.7392   -0.2292  -10.4276 O   0  0  0  0  0  0  0  0  0  0  0  0
   23.2836    0.0505  -10.1222 P   0  0  0  0  0  0  0  0  0  0  0  0
   24.0003   -0.9459   -9.2832 O   0  0  0  0  0  0  0  0  0  0  0  0
   23.9279    0.2573  -11.5652 O   0  0  0  0  0  0  0  0  0  0  0  0
   23.3047    1.5315   -9.5318 O   0  0  0  0  0  0  0  0  0  0  0  0
    2.1617    0.4560    1.6931 H   0  0  0  0  0  0  0  0  0  0  0  0
    2.0903   -0.2422    0.0721 H   0  0  0  0  0  0  0  0  0  0  0  0
    2.1233    1.5213    0.2790 H   0  0  0  0  0  0  0  0  0  0  0  0
    4.4004   -0.4071    0.9989 H   0  0  0  0  0  0  0  0  0  0  0  0
    4.4024    1.3226    1.3252 H   0  0  0  0  0  0  0  0  0  0  0  0
    5.6987    0.9875   -0.6296 H   0  0  0  0  0  0  0  0  0  0  0  0
    4.2170    1.7910   -1.1368 H   0  0  0  0  0  0  0  0  0  0  0  0
    3.2857   -0.4267   -1.8822 H   0  0  0  0  0  0  0  0  0  0  0  0
    4.7806   -1.2176   -1.3931 H   0  0  0  0  0  0  0  0  0  0  0  0
    4.5332    0.9747   -3.5247 H   0  0  0  0  0  0  0  0  0  0  0  0
    4.5997   -0.7545   -3.8480 H   0  0  0  0  0  0  0  0  0  0  0  0
    6.8731   -0.8886   -2.8405 H   0  0  0  0  0  0  0  0  0  0  0  0
    6.8396    0.8415   -2.4961 H   0  0  0  0  0  0  0  0  0  0  0  0
    6.5999    1.3447   -4.9241 H   0  0  0  0  0  0  0  0  0  0  0  0
    6.6486   -0.3815   -5.2921 H   0  0  0  0  0  0  0  0  0  0  0  0
    8.9273   -0.5477   -4.2951 H   0  0  0  0  0  0  0  0  0  0  0  0
    8.8813    1.1630   -3.8650 H   0  0  0  0  0  0  0  0  0  0  0  0
    8.6842    1.7768   -6.2799 H   0  0  0  0  0  0  0  0  0  0  0  0
    8.7124    0.0680   -6.7222 H   0  0  0  0  0  0  0  0  0  0  0  0
   10.9852   -0.1606   -5.6889 H   0  0  0  0  0  0  0  0  0  0  0  0
   10.9588    1.5485   -5.2496 H   0  0  0  0  0  0  0  0  0  0  0  0
   10.7788    2.1753   -7.6634 H   0  0  0  0  0  0  0  0  0  0  0  0
   10.7783    0.4682   -8.1127 H   0  0  0  0  0  0  0  0  0  0  0  0
   13.0407    0.1995   -7.0670 H   0  0  0  0  0  0  0  0  0  0  0  0
   13.0521    1.9151   -6.6504 H   0  0  0  0  0  0  0  0  0  0  0  0
   12.8124    2.4907   -9.0881 H   0  0  0  0  0  0  0  0  0  0  0  0
   12.8824    0.7798   -9.4961 H   0  0  0  0  0  0  0  0  0  0  0  0
   15.1011    2.3725   -8.0971 H   0  0  0  0  0  0  0  0  0  0  0  0
   15.0412    1.9991   -9.8094 H   0  0  0  0  0  0  0  0  0  0  0  0
   15.1039   -0.4868   -9.2449 H   0  0  0  0  0  0  0  0  0  0  0  0
   15.2770   -0.0667   -7.5471 H   0  0  0  0  0  0  0  0  0  0  0  0
   19.0847    1.3865   -9.8217 H   0  0  0  0  0  0  0  0  0  0  0  0
   18.8862    0.4976  -11.3375 H   0  0  0  0  0  0  0  0  0  0  0  0
   21.3054   -1.3390   -8.7479 H   0  0  0  0  0  0  0  0  0  0  0  0
   20.9453    0.3958   -8.6255 H   0  0  0  0  0  0  0  0  0  0  0  0
   24.1709   -0.5960  -11.9690 H   0  0  0  0  0  0  0  0  0  0  0  0
   24.1997    1.7745   -9.2334 H   0  0  0  0  0  0  0  0  0  0  0  0
  1  2  1  0  0  0  0
  1 28  1  0  0  0  0
  1 29  1  0  0  0  0
  1 30  1  0  0  0  0
  2  3  1  0  0  0  0
  2 31  1  0  0  0  0
  2 32  1  0  0  0  0
  3  4  1  0  0  0  0
  3 33  1  0  0  0  0
  3 34  1  0  0  0  0
  4  5  1  0  0  0  0
  4 35  1  0  0  0  0
  4 36  1  0  0  0  0
  5  6  1  0  0  0  0
  5 37  1  0  0  0  0
  5 38  1  0  0  0  0
  6  7  1  0  0  0  0
  6 39  1  0  0  0  0
  6 40  1  0  0  0  0
  7  8  1  0  0  0  0
  7 41  1  0  0  0  0
  7 42  1  0  0  0  0
  8  9  1  0  0  0  0
  8 43  1  0  0  0  0
  8 44  1  0  0  0  0
  9 10  1  0  0  0  0
  9 45  1  0  0  0  0
  9 46  1  0  0  0  0
 10 11  1  0  0  0  0
 10 47  1  0  0  0  0
 10 48  1  0  0  0  0
 11 12  1  0  0  0  0
 11 49  1  0  0  0  0
 11 50  1  0  0  0  0
 12 13  1  0  0  0  0
 12 51  1  0  0  0  0
 12 52  1  0  0  0  0
 13 14  1  0  0  0  0
 13 53  1  0  0  0  0
 13 54  1  0  0  0  0
 14 15  1  0  0  0  0
 14 55  1  0  0  0  0
 14 56  1  0  0  0  0
 15 16  1  0  0  0  0
 15 57  1  0  0  0  0
 15 58  1  0  0  0  0
 16 17  2  0  0  0  0
 16 18  1  0  0  0  0
 18 19  1  0  0  0  0
 19 20  1  0  0  0  0
 19 59  1  0  0  0  0
 19 60  1  0  0  0  0
 20 21  2  0  0  0  0
 20 22  1  0  0  0  0
 22 23  1  0  0  0  0
 22 61  1  0  0  0  0
 22 62  1  0  0  0  0
 23 24  1  0  0  0  0
 24 25  2  0  0  0  0
 24 26  1  0  0  0  0
 24 27  1  0  0  0  0
 26 63  1  0  0  0  0
 27 64  1  0  0  0  0
M  END
$$$$
