CHEBI:17764
 OpenBabel04242417153D

 26 25  0  0  1  0  0  0  0  0999 V2000
    0.1710    4.3793   -0.4393 C   0  0  0  0  0  0  0  0  0  0  0  0
    0.7416    3.6425    0.7840 C   0  0  2  0  0  0  0  0  0  0  0  0
   -0.3898    3.1762    1.5444 O   0  0  0  0  0  0  0  0  0  0  0  0
    1.5565    4.6104    1.6657 C   0  0  0  0  0  0  0  0  0  0  0  0
    0.7113    5.6830    2.0921 O   0  0  0  0  0  0  0  0  0  0  0  0
    1.5583    2.3991    0.3461 C   0  0  2  0  0  0  0  0  0  0  0  0
    0.7169    1.5618   -0.4857 O   0  0  0  0  0  0  0  0  0  0  0  0
    2.0605    1.5326    1.5158 C   0  0  0  0  0  0  0  0  0  0  0  0
    2.9203    0.4943    1.0549 O   0  0  0  0  0  0  0  0  0  0  0  0
    2.2541   -0.7568    0.3067 P   0  0  0  0  0  0  0  0  0  0  0  0
    0.9493   -1.2517    0.8253 O   0  0  0  0  0  0  0  0  0  0  0  0
    2.2467   -0.3244   -1.2304 O   0  0  0  0  0  0  0  0  0  0  0  0
    3.4108   -1.8576    0.3194 O   0  0  0  0  0  0  0  0  0  0  0  0
   -0.4511    5.2299   -0.1388 H   0  0  0  0  0  0  0  0  0  0  0  0
   -0.4871    3.7294   -1.0268 H   0  0  0  0  0  0  0  0  0  0  0  0
    0.9698    4.7472   -1.0909 H   0  0  0  0  0  0  0  0  0  0  0  0
   -0.7716    3.9819    1.9525 H   0  0  0  0  0  0  0  0  0  0  0  0
    2.4082    5.0261    1.1179 H   0  0  0  0  0  0  0  0  0  0  0  0
    1.9110    4.1233    2.5774 H   0  0  0  0  0  0  0  0  0  0  0  0
    1.2660    6.2977    2.6057 H   0  0  0  0  0  0  0  0  0  0  0  0
    2.4082    2.6983   -0.2780 H   0  0  0  0  0  0  0  0  0  0  0  0
   -0.1396    1.5153   -0.0008 H   0  0  0  0  0  0  0  0  0  0  0  0
    1.2298    1.0828    2.0696 H   0  0  0  0  0  0  0  0  0  0  0  0
    2.6526    2.1246    2.2173 H   0  0  0  0  0  0  0  0  0  0  0  0
    1.5660    0.3809   -1.3398 H   0  0  0  0  0  0  0  0  0  0  0  0
    3.0783   -2.6981   -0.0399 H   0  0  0  0  0  0  0  0  0  0  0  0
  1 14  1  0  0  0  0
  1 15  1  0  0  0  0
  1 16  1  0  0  0  0
  2  4  1  0  0  0  0
  2  3  1  1  0  0  0
  2  1  1  0  0  0  0
  3 17  1  0  0  0  0
  4  5  1  0  0  0  0
  4 18  1  0  0  0  0
  4 19  1  0  0  0  0
  5 20  1  0  0  0  0
  6  8  1  0  0  0  0
  6  7  1  0  0  0  0
  6  2  1  0  0  0  0
  6 21  1  6  0  0  0
  7 22  1  0  0  0  0
  8  9  1  0  0  0  0
  8 23  1  0  0  0  0
  8 24  1  0  0  0  0
  9 10  1  0  0  0  0
 10 11  2  0  0  0  0
 10 12  1  0  0  0  0
 10 13  1  0  0  0  0
 12 25  1  0  0  0  0
 13 26  1  0  0  0  0
M  END
$$$$
