CHEBI:15761
 OpenBabel04242413133D

 15 15  0  0  0  0  0  0  0  0999 V2000
   -2.4141   -0.0010    0.0487 C   0  0  0  0  0  0  0  0  0  0  0  0
   -0.9420   -0.0081    0.0322 N   0  3  0  0  0  0  0  0  0  0  0  0
   -0.2663   -1.1797    0.0286 C   0  0  0  0  0  0  0  0  0  0  0  0
    1.1241   -1.1926    0.0158 C   0  0  0  0  0  0  0  0  0  0  0  0
    1.8170    0.0111    0.0075 C   0  0  0  0  0  0  0  0  0  0  0  0
    1.1083    1.2054    0.0123 C   0  0  0  0  0  0  0  0  0  0  0  0
   -0.2810    1.1726    0.0251 C   0  0  0  0  0  0  0  0  0  0  0  0
   -2.7954   -1.0235   -0.0018 H   0  0  0  0  0  0  0  0  0  0  0  0
   -2.7573    0.5669   -0.8202 H   0  0  0  0  0  0  0  0  0  0  0  0
   -2.7342    0.4736    0.9800 H   0  0  0  0  0  0  0  0  0  0  0  0
   -0.8429   -2.1003    0.0365 H   0  0  0  0  0  0  0  0  0  0  0  0
    1.6654   -2.1365    0.0128 H   0  0  0  0  0  0  0  0  0  0  0  0
    2.9064    0.0182   -0.0022 H   0  0  0  0  0  0  0  0  0  0  0  0
    1.6366    2.1565    0.0065 H   0  0  0  0  0  0  0  0  0  0  0  0
   -0.8759    2.0816    0.0301 H   0  0  0  0  0  0  0  0  0  0  0  0
  1  2  1  0  0  0  0
  1  8  1  0  0  0  0
  1  9  1  0  0  0  0
  1 10  1  0  0  0  0
  2  3  1  0  0  0  0
  2  7  2  0  0  0  0
  3  4  2  0  0  0  0
  3 11  1  0  0  0  0
  4  5  1  0  0  0  0
  4 12  1  0  0  0  0
  5  6  2  0  0  0  0
  5 13  1  0  0  0  0
  6  7  1  0  0  0  0
  6 14  1  0  0  0  0
  7 15  1  0  0  0  0
M  CHG  1   2   1
M  END
$$$$
