CHEBI:17413
 OpenBabel04242416313D

 17 16  0  0  0  0  0  0  0  0999 V2000
    2.3316    2.5290   -2.6118 O   0  0  0  0  0  0  0  0  0  0  0  0
    1.8889    1.3880   -2.4860 C   0  0  0  0  0  0  0  0  0  0  0  0
    2.7716    0.1684   -2.4074 C   0  0  0  0  0  0  0  0  0  0  0  0
    4.2560    0.5447   -2.3502 C   0  0  0  0  0  0  0  0  0  0  0  0
    5.1028   -0.6325   -1.8619 C   0  0  0  0  0  0  0  0  0  0  0  0
    4.7466   -0.9545   -0.5205 O   0  0  0  0  0  0  0  0  0  0  0  0
    4.7549    0.9537   -3.7214 C   0  0  0  0  0  0  0  0  0  0  0  0
    5.3956    0.2237   -4.4641 O   0  0  0  0  0  0  0  0  0  0  0  0
    4.4196    2.2131   -4.0761 O   0  0  0  0  0  0  0  0  0  0  0  0
    0.8024    1.1966   -2.4576 H   0  0  0  0  0  0  0  0  0  0  0  0
    2.5497   -0.4664   -3.2718 H   0  0  0  0  0  0  0  0  0  0  0  0
    2.4676   -0.3673   -1.5014 H   0  0  0  0  0  0  0  0  0  0  0  0
    4.4182    1.3779   -1.6541 H   0  0  0  0  0  0  0  0  0  0  0  0
    6.1689   -0.3792   -1.8796 H   0  0  0  0  0  0  0  0  0  0  0  0
    4.9499   -1.5228   -2.4823 H   0  0  0  0  0  0  0  0  0  0  0  0
    5.3385   -1.6754   -0.2385 H   0  0  0  0  0  0  0  0  0  0  0  0
    3.8065    2.6626   -3.4419 H   0  0  0  0  0  0  0  0  0  0  0  0
  1  2  2  0  0  0  0
  2  3  1  0  0  0  0
  2 10  1  0  0  0  0
  3  4  1  0  0  0  0
  3 11  1  0  0  0  0
  3 12  1  0  0  0  0
  4  5  1  0  0  0  0
  4  7  1  0  0  0  0
  4 13  1  0  0  0  0
  5  6  1  0  0  0  0
  5 14  1  0  0  0  0
  5 15  1  0  0  0  0
  6 16  1  0  0  0  0
  7  8  2  0  0  0  0
  7  9  1  0  0  0  0
  9 17  1  0  0  0  0
M  END
$$$$
