CHEBI:15884
 OpenBabel04242413253D

 25 26  0  0  1  0  0  0  0  0999 V2000
    1.0830   -0.0522    0.2470 C   0  0  0  0  0  0  0  0  0  0  0  0
    2.4748   -0.0468   -0.1645 N   0  0  0  0  0  0  0  0  0  0  0  0
    2.9158   -1.1925   -0.9636 C   0  0  2  0  0  0  0  0  0  0  0  0
    4.3793   -0.8025   -1.1979 C   0  0  0  0  0  0  0  0  0  0  0  0
    4.3766    0.7302   -1.1871 C   0  0  0  0  0  0  0  0  0  0  0  0
    2.9117    1.1117   -0.9472 C   0  0  1  0  0  0  0  0  0  0  0  0
    2.1313    1.2624   -2.2653 C   0  0  0  0  0  0  0  0  0  0  0  0
    2.0479   -0.0267   -3.0951 C   0  0  1  0  0  0  0  0  0  0  0  0
    3.0366   -0.0175   -4.1279 O   0  0  0  0  0  0  0  0  0  0  0  0
    2.1360   -1.3272   -2.2838 C   0  0  0  0  0  0  0  0  0  0  0  0
    0.8768   -0.9357    0.8611 H   0  0  0  0  0  0  0  0  0  0  0  0
    0.3694   -0.0478   -0.5819 H   0  0  0  0  0  0  0  0  0  0  0  0
    0.8735    0.8220    0.8732 H   0  0  0  0  0  0  0  0  0  0  0  0
    2.8588   -2.1296   -0.3987 H   0  0  0  0  0  0  0  0  0  0  0  0
    4.7905   -1.2123   -2.1253 H   0  0  0  0  0  0  0  0  0  0  0  0
    5.0077   -1.1659   -0.3749 H   0  0  0  0  0  0  0  0  0  0  0  0
    4.7862    1.1546   -2.1087 H   0  0  0  0  0  0  0  0  0  0  0  0
    5.0038    1.0843   -0.3591 H   0  0  0  0  0  0  0  0  0  0  0  0
    2.8514    2.0405   -0.3690 H   0  0  0  0  0  0  0  0  0  0  0  0
    2.5777    2.0675   -2.8621 H   0  0  0  0  0  0  0  0  0  0  0  0
    1.1110    1.5860   -2.0239 H   0  0  0  0  0  0  0  0  0  0  0  0
    1.0943   -0.0245   -3.6359 H   0  0  0  0  0  0  0  0  0  0  0  0
    3.9177   -0.0191   -3.7235 H   0  0  0  0  0  0  0  0  0  0  0  0
    2.5853   -2.1221   -2.8920 H   0  0  0  0  0  0  0  0  0  0  0  0
    1.1168   -1.6579   -2.0471 H   0  0  0  0  0  0  0  0  0  0  0  0
  1  2  1  0  0  0  0
  1 11  1  0  0  0  0
  1 12  1  0  0  0  0
  1 13  1  0  0  0  0
  2  3  1  0  0  0  0
  2  6  1  0  0  0  0
  3  4  1  0  0  0  0
  3 10  1  0  0  0  0
  3 14  1  1  0  0  0
  4  5  1  0  0  0  0
  4 15  1  0  0  0  0
  4 16  1  0  0  0  0
  5  6  1  0  0  0  0
  5 17  1  0  0  0  0
  5 18  1  0  0  0  0
  6  7  1  0  0  0  0
  6 19  1  1  0  0  0
  7  8  1  0  0  0  0
  7 20  1  0  0  0  0
  7 21  1  0  0  0  0
  8  9  1  0  0  0  0
  8 10  1  0  0  0  0
  8 22  1  6  0  0  0
  9 23  1  0  0  0  0
 10 24  1  0  0  0  0
 10 25  1  0  0  0  0
M  END
$$$$
