CHEBI:18242
 OpenBabel04252409153D

 28 28  0  0  1  0  0  0  0  0999 V2000
    1.1573   -1.0036   -0.7216 C   0  0  0  0  0  0  0  0  0  0  0  0
    2.5571   -0.4964   -0.3620 C   0  0  0  0  0  0  0  0  0  0  0  0
    2.5671    1.0299   -0.2521 C   0  0  0  0  0  0  0  0  0  0  0  0
    3.1075   -1.1408    0.9023 C   0  0  0  0  0  0  0  0  0  0  0  0
    2.4497   -1.1350    2.0765 C   0  0  0  0  0  0  0  0  0  0  0  0
    2.9899   -1.7464    3.2665 C   0  0  0  0  0  0  0  0  0  0  0  0
    4.2529   -2.2039    3.3235 C   0  0  0  0  0  0  0  0  0  0  0  0
    4.7268   -2.7201    4.6281 C   0  0  0  0  0  0  0  0  0  0  0  0
    4.2024   -2.4368    5.6950 O   0  0  0  0  0  0  0  0  0  0  0  0
    5.7957   -3.5360    4.5413 O   0  0  0  0  0  0  0  0  0  0  0  0
    5.1771   -2.1176    2.1457 C   0  0  1  0  0  0  0  0  0  0  0  0
    5.8908   -3.3666    2.0295 O   0  0  0  0  0  0  0  0  0  0  0  0
    4.4697   -1.7917    0.7908 C   0  0  1  0  0  0  0  0  0  0  0  0
    4.3427   -3.0238    0.0527 O   0  0  0  0  0  0  0  0  0  0  0  0
    0.8446   -0.6048   -1.6929 H   0  0  0  0  0  0  0  0  0  0  0  0
    0.4071   -0.6996    0.0161 H   0  0  0  0  0  0  0  0  0  0  0  0
    1.1425   -2.0968   -0.7913 H   0  0  0  0  0  0  0  0  0  0  0  0
    3.2124   -0.7664   -1.2008 H   0  0  0  0  0  0  0  0  0  0  0  0
    1.8859    1.3846    0.5294 H   0  0  0  0  0  0  0  0  0  0  0  0
    2.2552    1.4861   -1.1978 H   0  0  0  0  0  0  0  0  0  0  0  0
    3.5714    1.4004   -0.0186 H   0  0  0  0  0  0  0  0  0  0  0  0
    1.4751   -0.6624    2.1790 H   0  0  0  0  0  0  0  0  0  0  0  0
    2.3371   -1.7834    4.1380 H   0  0  0  0  0  0  0  0  0  0  0  0
    6.0583   -3.7172    3.6054 H   0  0  0  0  0  0  0  0  0  0  0  0
    5.9177   -1.3361    2.3556 H   0  0  0  0  0  0  0  0  0  0  0  0
    5.5921   -3.7330    1.1636 H   0  0  0  0  0  0  0  0  0  0  0  0
    5.1419   -1.1504    0.2085 H   0  0  0  0  0  0  0  0  0  0  0  0
    3.4206   -3.0984   -0.2519 H   0  0  0  0  0  0  0  0  0  0  0  0
  1  2  1  0  0  0  0
  1 15  1  0  0  0  0
  1 16  1  0  0  0  0
  1 17  1  0  0  0  0
  2  3  1  0  0  0  0
  2  4  1  0  0  0  0
  2 18  1  0  0  0  0
  3 19  1  0  0  0  0
  3 20  1  0  0  0  0
  3 21  1  0  0  0  0
  4  5  2  0  0  0  0
  4 13  1  0  0  0  0
  5  6  1  0  0  0  0
  5 22  1  0  0  0  0
  6  7  2  0  0  0  0
  6 23  1  0  0  0  0
  7  8  1  0  0  0  0
  7 11  1  0  0  0  0
  8  9  2  0  0  0  0
  8 10  1  0  0  0  0
 10 24  1  0  0  0  0
 11 12  1  0  0  0  0
 11 13  1  0  0  0  0
 11 25  1  1  0  0  0
 12 26  1  0  0  0  0
 13 14  1  0  0  0  0
 13 27  1  6  0  0  0
 14 28  1  0  0  0  0
M  END
$$$$
