CHEBI:17755
 OpenBabel04242417143D

 28 27  0  0  0  0  0  0  0  0999 V2000
    4.4628    0.4556    0.4155 N   0  0  0  0  0  0  0  0  0  0  0  0
    3.4723    0.2374   -0.6816 C   0  0  0  0  0  0  0  0  0  0  0  0
    3.4135   -1.2275   -1.1344 C   0  0  0  0  0  0  0  0  0  0  0  0
    2.9917   -2.2051   -0.0348 C   0  0  0  0  0  0  0  0  0  0  0  0
    3.0002   -3.9099   -0.6891 S   0  0  0  0  0  0  0  0  0  0  0  0
    2.4940   -4.7886    0.8396 C   0  0  0  0  0  0  0  0  0  0  0  0
    2.4141   -6.3136    0.6639 C   0  0  0  0  0  0  0  0  0  0  0  0
    1.7039   -6.7486   -0.5834 N   0  0  0  0  0  0  0  0  0  0  0  0
    3.8089   -6.9584    0.6840 C   0  0  0  0  0  0  0  0  0  0  0  0
    4.7252   -6.6463    1.4275 O   0  0  0  0  0  0  0  0  0  0  0  0
    3.8812   -7.9881   -0.2022 O   0  0  0  0  0  0  0  0  0  0  0  0
    2.0912    0.7192   -0.2075 C   0  0  0  0  0  0  0  0  0  0  0  0
    1.0888    0.7762   -0.9008 O   0  0  0  0  0  0  0  0  0  0  0  0
    2.1083    1.0388    1.1131 O   0  0  0  0  0  0  0  0  0  0  0  0
    4.7979    1.4243    0.3433 H   0  0  0  0  0  0  0  0  0  0  0  0
    5.2981   -0.1017    0.2061 H   0  0  0  0  0  0  0  0  0  0  0  0
    3.7695    0.8704   -1.5256 H   0  0  0  0  0  0  0  0  0  0  0  0
    4.4002   -1.5108   -1.5248 H   0  0  0  0  0  0  0  0  0  0  0  0
    2.7092   -1.3027   -1.9738 H   0  0  0  0  0  0  0  0  0  0  0  0
    1.9823   -1.9767    0.3203 H   0  0  0  0  0  0  0  0  0  0  0  0
    3.6827   -2.1569    0.8120 H   0  0  0  0  0  0  0  0  0  0  0  0
    1.5033   -4.4114    1.1155 H   0  0  0  0  0  0  0  0  0  0  0  0
    3.1944   -4.5275    1.6396 H   0  0  0  0  0  0  0  0  0  0  0  0
    1.8777   -6.7486    1.5157 H   0  0  0  0  0  0  0  0  0  0  0  0
    2.0484   -6.1325   -1.3363 H   0  0  0  0  0  0  0  0  0  0  0  0
    0.7229   -6.4669   -0.4935 H   0  0  0  0  0  0  0  0  0  0  0  0
    3.0032   -8.0093   -0.6617 H   0  0  0  0  0  0  0  0  0  0  0  0
    3.0334    0.8675    1.4221 H   0  0  0  0  0  0  0  0  0  0  0  0
  1  2  1  0  0  0  0
  1 15  1  0  0  0  0
  1 16  1  0  0  0  0
  2  3  1  0  0  0  0
  2 12  1  0  0  0  0
  2 17  1  0  0  0  0
  3  4  1  0  0  0  0
  3 18  1  0  0  0  0
  3 19  1  0  0  0  0
  4  5  1  0  0  0  0
  4 20  1  0  0  0  0
  4 21  1  0  0  0  0
  5  6  1  0  0  0  0
  6  7  1  0  0  0  0
  6 22  1  0  0  0  0
  6 23  1  0  0  0  0
  7  8  1  0  0  0  0
  7  9  1  0  0  0  0
  7 24  1  0  0  0  0
  8 25  1  0  0  0  0
  8 26  1  0  0  0  0
  9 10  2  0  0  0  0
  9 11  1  0  0  0  0
 11 27  1  0  0  0  0
 12 13  2  0  0  0  0
 12 14  1  0  0  0  0
 14 28  1  0  0  0  0
M  END
$$$$
