CHEBI:15650
 OpenBabel04242413003D

 67 66  0  0  1  0  0  0  0  0999 V2000
   -3.2352  -15.9646   11.9559 C   0  0  0  0  0  0  0  0  0  0  0  0
   -3.4850  -15.0946   10.7339 C   0  0  0  0  0  0  0  0  0  0  0  0
   -2.5167  -13.9108   10.6772 C   0  0  0  0  0  0  0  0  0  0  0  0
   -2.7610  -12.9861    9.4784 C   0  0  0  0  0  0  0  0  0  0  0  0
   -4.0982  -12.2454    9.5652 C   0  0  0  0  0  0  0  0  0  0  0  0
   -4.3283  -11.3451    8.3838 C   0  0  0  0  0  0  0  0  0  0  0  0
   -4.4327  -10.0051    8.3767 C   0  0  0  0  0  0  0  0  0  0  0  0
   -4.3032   -9.0658    9.5397 C   0  0  0  0  0  0  0  0  0  0  0  0
   -3.2195   -8.0163    9.4635 C   0  0  0  0  0  0  0  0  0  0  0  0
   -2.2035   -7.7812    8.6163 C   0  0  0  0  0  0  0  0  0  0  0  0
   -1.8229   -8.5625    7.4683 C   0  0  0  0  0  0  0  0  0  0  0  0
   -1.0951   -8.0788    6.4504 C   0  0  0  0  0  0  0  0  0  0  0  0
   -0.8706   -8.8104    5.2205 C   0  0  0  0  0  0  0  0  0  0  0  0
   -1.8826   -9.4110    4.5711 C   0  0  0  0  0  0  0  0  0  0  0  0
   -1.8051  -10.0456    3.2111 C   0  0  1  0  0  0  0  0  0  0  0  0
   -3.1805  -11.2696    3.0239 S   0  0  0  0  0  0  0  0  0  0  0  0
   -2.8226  -12.3804    4.4363 C   0  0  0  0  0  0  0  0  0  0  0  0
   -3.7670  -13.5924    4.4467 C   0  0  2  0  0  0  0  0  0  0  0  0
   -5.2254  -13.2277    4.4379 N   0  0  0  0  0  0  0  0  0  0  0  0
   -3.4908  -14.4245    5.7054 C   0  0  0  0  0  0  0  0  0  0  0  0
   -2.3835  -14.7221    6.1250 O   0  0  0  0  0  0  0  0  0  0  0  0
   -4.6477  -14.8069    6.3073 O   0  0  0  0  0  0  0  0  0  0  0  0
   -1.8055   -8.9958    2.0508 C   0  0  1  0  0  0  0  0  0  0  0  0
   -1.5190   -9.6372    0.7941 O   0  0  0  0  0  0  0  0  0  0  0  0
   -3.0795   -8.1501    1.8280 C   0  0  0  0  0  0  0  0  0  0  0  0
   -3.4547   -7.2317    2.9895 C   0  0  0  0  0  0  0  0  0  0  0  0
   -4.6292   -6.3166    2.6665 C   0  0  0  0  0  0  0  0  0  0  0  0
   -4.9861   -5.5221    3.8928 C   0  0  0  0  0  0  0  0  0  0  0  0
   -4.2988   -4.6647    4.4222 O   0  0  0  0  0  0  0  0  0  0  0  0
   -6.1653   -5.8858    4.4300 O   0  0  0  0  0  0  0  0  0  0  0  0
   -3.9120  -16.8250   11.9509 H   0  0  0  0  0  0  0  0  0  0  0  0
   -3.4134  -15.4007   12.8773 H   0  0  0  0  0  0  0  0  0  0  0  0
   -2.2071  -16.3387   11.9731 H   0  0  0  0  0  0  0  0  0  0  0  0
   -4.5220  -14.7467   10.7707 H   0  0  0  0  0  0  0  0  0  0  0  0
   -3.3781  -15.7021    9.8277 H   0  0  0  0  0  0  0  0  0  0  0  0
   -1.4908  -14.2952   10.6146 H   0  0  0  0  0  0  0  0  0  0  0  0
   -2.5796  -13.3305   11.6056 H   0  0  0  0  0  0  0  0  0  0  0  0
   -2.7095  -13.5698    8.5529 H   0  0  0  0  0  0  0  0  0  0  0  0
   -1.9441  -12.2541    9.4338 H   0  0  0  0  0  0  0  0  0  0  0  0
   -4.1466  -11.6988   10.5108 H   0  0  0  0  0  0  0  0  0  0  0  0
   -4.9263  -12.9618    9.5819 H   0  0  0  0  0  0  0  0  0  0  0  0
   -4.4508  -11.8682    7.4380 H   0  0  0  0  0  0  0  0  0  0  0  0
   -4.6470   -9.5226    7.4232 H   0  0  0  0  0  0  0  0  0  0  0  0
   -4.1726   -9.6034   10.4827 H   0  0  0  0  0  0  0  0  0  0  0  0
   -5.2621   -8.5379    9.6251 H   0  0  0  0  0  0  0  0  0  0  0  0
   -3.3189   -7.2889   10.2722 H   0  0  0  0  0  0  0  0  0  0  0  0
   -1.6047   -6.8872    8.7940 H   0  0  0  0  0  0  0  0  0  0  0  0
   -2.1783   -9.5853    7.4151 H   0  0  0  0  0  0  0  0  0  0  0  0
   -0.6956   -7.0671    6.4797 H   0  0  0  0  0  0  0  0  0  0  0  0
    0.1241   -8.7459    4.7869 H   0  0  0  0  0  0  0  0  0  0  0  0
   -2.8679   -9.3894    5.0358 H   0  0  0  0  0  0  0  0  0  0  0  0
   -0.8822  -10.6338    3.1362 H   0  0  0  0  0  0  0  0  0  0  0  0
   -2.9376  -11.8195    5.3699 H   0  0  0  0  0  0  0  0  0  0  0  0
   -1.7820  -12.7148    4.3696 H   0  0  0  0  0  0  0  0  0  0  0  0
   -3.5796  -14.2478    3.5883 H   0  0  0  0  0  0  0  0  0  0  0  0
   -5.4444  -12.9667    3.4674 H   0  0  0  0  0  0  0  0  0  0  0  0
   -5.3267  -12.3305    4.9273 H   0  0  0  0  0  0  0  0  0  0  0  0
   -5.3761  -14.4331    5.7467 H   0  0  0  0  0  0  0  0  0  0  0  0
   -0.9708   -8.3028    2.2189 H   0  0  0  0  0  0  0  0  0  0  0  0
   -0.7733  -10.2470    0.9228 H   0  0  0  0  0  0  0  0  0  0  0  0
   -3.9260   -8.7984    1.5721 H   0  0  0  0  0  0  0  0  0  0  0  0
   -2.9202   -7.5343    0.9318 H   0  0  0  0  0  0  0  0  0  0  0  0
   -2.5863   -6.6277    3.2803 H   0  0  0  0  0  0  0  0  0  0  0  0
   -3.7452   -7.8238    3.8592 H   0  0  0  0  0  0  0  0  0  0  0  0
   -5.4977   -6.9040    2.3474 H   0  0  0  0  0  0  0  0  0  0  0  0
   -4.3929   -5.6181    1.8577 H   0  0  0  0  0  0  0  0  0  0  0  0
   -6.2448   -5.3234    5.2292 H   0  0  0  0  0  0  0  0  0  0  0  0
  1  2  1  0  0  0  0
  1 31  1  0  0  0  0
  1 32  1  0  0  0  0
  1 33  1  0  0  0  0
  2  3  1  0  0  0  0
  2 34  1  0  0  0  0
  2 35  1  0  0  0  0
  3  4  1  0  0  0  0
  3 36  1  0  0  0  0
  3 37  1  0  0  0  0
  4  5  1  0  0  0  0
  4 38  1  0  0  0  0
  4 39  1  0  0  0  0
  5  6  1  0  0  0  0
  5 40  1  0  0  0  0
  5 41  1  0  0  0  0
  6  7  2  0  0  0  0
  6 42  1  0  0  0  0
  7  8  1  0  0  0  0
  7 43  1  0  0  0  0
  8  9  1  0  0  0  0
  8 44  1  0  0  0  0
  8 45  1  0  0  0  0
  9 10  2  0  0  0  0
  9 46  1  0  0  0  0
 10 11  1  0  0  0  0
 10 47  1  0  0  0  0
 11 12  2  0  0  0  0
 11 48  1  0  0  0  0
 12 13  1  0  0  0  0
 12 49  1  0  0  0  0
 13 14  2  0  0  0  0
 13 50  1  0  0  0  0
 14 15  1  0  0  0  0
 14 51  1  0  0  0  0
 15 16  1  0  0  0  0
 15 23  1  0  0  0  0
 15 52  1  6  0  0  0
 16 17  1  0  0  0  0
 17 53  1  0  0  0  0
 17 54  1  0  0  0  0
 18 20  1  0  0  0  0
 18 19  1  0  0  0  0
 18 17  1  0  0  0  0
 18 55  1  6  0  0  0
 19 56  1  0  0  0  0
 19 57  1  0  0  0  0
 20 21  2  0  0  0  0
 20 22  1  0  0  0  0
 22 58  1  0  0  0  0
 23 24  1  0  0  0  0
 23 25  1  0  0  0  0
 23 59  1  1  0  0  0
 24 60  1  0  0  0  0
 25 26  1  0  0  0  0
 25 61  1  0  0  0  0
 25 62  1  0  0  0  0
 26 27  1  0  0  0  0
 26 63  1  0  0  0  0
 26 64  1  0  0  0  0
 27 28  1  0  0  0  0
 27 65  1  0  0  0  0
 27 66  1  0  0  0  0
 28 29  2  0  0  0  0
 28 30  1  0  0  0  0
 30 67  1  0  0  0  0
M  END
$$$$
