CHEBI:15873
 OpenBabel04242413243D

 30 30  0  0  1  0  0  0  0  0999 V2000
    0.7717    0.1501    0.2973 N   0  0  0  0  0  0  0  0  0  0  0  0
    2.2531    0.0404    0.1883 C   0  0  2  0  0  0  0  0  0  0  0  0
    2.8161    1.1445   -0.7240 C   0  0  1  0  0  0  0  0  0  0  0  0
    4.2362    1.2225   -0.5783 O   0  0  0  0  0  0  0  0  0  0  0  0
    2.4402    0.8885   -2.1947 C   0  0  2  0  0  0  0  0  0  0  0  0
    1.0411    1.1716   -2.3698 O   0  0  0  0  0  0  0  0  0  0  0  0
    2.7085   -0.5652   -2.6408 C   0  0  1  0  0  0  0  0  0  0  0  0
    4.1859   -0.8378   -2.9707 C   0  0  0  0  0  0  0  0  0  0  0  0
    4.4344   -2.2139   -3.2322 O   0  0  0  0  0  0  0  0  0  0  0  0
    3.9995   -2.8896   -4.6125 P   0  0  0  0  0  0  0  0  0  0  0  0
    4.5273   -4.2572   -4.8718 O   0  0  0  0  0  0  0  0  0  0  0  0
    2.4088   -2.8191   -4.6315 O   0  0  0  0  0  0  0  0  0  0  0  0
    4.3919   -1.8297   -5.7391 O   0  0  0  0  0  0  0  0  0  0  0  0
    2.1921   -1.5298   -1.7002 O   0  0  0  0  0  0  0  0  0  0  0  0
    2.6686   -1.3463   -0.3748 C   0  0  2  0  0  0  0  0  0  0  0  0
    2.0721   -2.3540    0.4379 O   0  0  0  0  0  0  0  0  0  0  0  0
    0.5392    0.7771    1.0679 H   0  0  0  0  0  0  0  0  0  0  0  0
    0.4407   -0.7782    0.5921 H   0  0  0  0  0  0  0  0  0  0  0  0
    2.6663    0.1276    1.2007 H   0  0  0  0  0  0  0  0  0  0  0  0
    2.4092    2.1165   -0.4161 H   0  0  0  0  0  0  0  0  0  0  0  0
    4.4154    1.7301    0.2347 H   0  0  0  0  0  0  0  0  0  0  0  0
    2.9851    1.5766   -2.8506 H   0  0  0  0  0  0  0  0  0  0  0  0
    0.5716    0.6717   -1.6632 H   0  0  0  0  0  0  0  0  0  0  0  0
    2.1244   -0.7294   -3.5512 H   0  0  0  0  0  0  0  0  0  0  0  0
    4.8328   -0.5825   -2.1288 H   0  0  0  0  0  0  0  0  0  0  0  0
    4.5163   -0.2251   -3.8155 H   0  0  0  0  0  0  0  0  0  0  0  0
    2.0145   -3.4565   -4.0075 H   0  0  0  0  0  0  0  0  0  0  0  0
    4.3345   -2.2391   -6.6212 H   0  0  0  0  0  0  0  0  0  0  0  0
    3.7543   -1.4823   -0.3265 H   0  0  0  0  0  0  0  0  0  0  0  0
    2.4141   -3.1879    0.0741 H   0  0  0  0  0  0  0  0  0  0  0  0
  1  2  1  0  0  0  0
  1 17  1  0  0  0  0
  1 18  1  0  0  0  0
  2  3  1  0  0  0  0
  2 15  1  0  0  0  0
  2 19  1  1  0  0  0
  3  4  1  0  0  0  0
  3  5  1  0  0  0  0
  3 20  1  1  0  0  0
  4 21  1  0  0  0  0
  5  7  1  0  0  0  0
  5  6  1  0  0  0  0
  5 22  1  6  0  0  0
  6 23  1  0  0  0  0
  7  8  1  0  0  0  0
  7 14  1  0  0  0  0
  7 24  1  6  0  0  0
  8  9  1  0  0  0  0
  8 25  1  0  0  0  0
  8 26  1  0  0  0  0
  9 10  1  0  0  0  0
 10 11  2  0  0  0  0
 10 12  1  0  0  0  0
 10 13  1  0  0  0  0
 12 27  1  0  0  0  0
 13 28  1  0  0  0  0
 14 15  1  0  0  0  0
 15 16  1  0  0  0  0
 15 29  1  1  0  0  0
 16 30  1  0  0  0  0
M  END
$$$$
