CHEBI:15430
 OpenBabel04242411523D

 76 80  0  0  0  0  0  0  0  0999 V2000
    3.8572   -5.0681   -0.5133 C   0  0  0  0  0  0  0  0  0  0  0  0
    4.2961   -3.8103   -0.3818 C   0  0  0  0  0  0  0  0  0  0  0  0
    4.8507   -3.0103   -1.4577 C   0  0  0  0  0  0  0  0  0  0  0  0
    5.9165   -3.3679   -2.1975 C   0  0  0  0  0  0  0  0  0  0  0  0
    6.7830   -4.5700   -2.1775 C   0  0  0  0  0  0  0  0  0  0  0  0
    6.0904   -2.1914   -3.0749 C   0  0  0  0  0  0  0  0  0  0  0  0
    7.2109   -2.1980   -4.0433 C   0  0  0  0  0  0  0  0  0  0  0  0
    7.3506   -1.2498   -4.9752 C   0  0  0  0  0  0  0  0  0  0  0  0
    6.5438   -0.1784   -5.2296 N   0  0  0  0  0  0  0  0  0  0  0  0
    7.0122    0.6147   -6.2344 C   0  0  0  0  0  0  0  0  0  0  0  0
    6.4857    1.7387   -6.7289 C   0  0  0  0  0  0  0  0  0  0  0  0
    5.1954    2.2722   -6.2417 C   0  0  0  0  0  0  0  0  0  0  0  0
    4.5988    1.9862   -5.1201 N   0  0  0  0  0  0  0  0  0  0  0  0
    3.4587    2.7563   -5.1005 C   0  0  0  0  0  0  0  0  0  0  0  0
    2.5920    2.8620   -4.0807 C   0  0  0  0  0  0  0  0  0  0  0  0
    2.6512    2.1571   -2.8460 C   0  0  0  0  0  0  0  0  0  0  0  0
    3.2715    0.9305   -2.7658 N   0  0  0  0  0  0  0  0  0  0  0  0
    3.0380    0.3601   -1.5380 C   0  0  0  0  0  0  0  0  0  0  0  0
    3.4473   -0.9703   -1.2507 C   0  0  0  0  0  0  0  0  0  0  0  0
    4.4311   -1.6598   -1.8506 C   0  0  0  0  0  0  0  0  0  0  0  0
    5.2324   -1.2296   -2.8830 N   0  0  0  0  0  0  0  0  0  0  0  0
    2.3685    1.2949   -0.7612 C   0  0  0  0  0  0  0  0  0  0  0  0
    1.9521    1.1229    0.6633 C   0  0  0  0  0  0  0  0  0  0  0  0
    2.1425    2.4482   -1.5860 C   0  0  0  0  0  0  0  0  0  0  0  0
    1.4743    3.7248   -1.1595 C   0  0  0  0  0  0  0  0  0  0  0  0
    0.0028    3.7970   -1.5313 C   0  0  0  0  0  0  0  0  0  0  0  0
   -0.8363    2.8625   -0.7026 C   0  0  0  0  0  0  0  0  0  0  0  0
   -1.3871    3.1878    0.3388 O   0  0  0  0  0  0  0  0  0  0  0  0
   -0.9334    1.6169   -1.2160 O   0  0  0  0  0  0  0  0  0  0  0  0
    3.3802    3.4784   -6.3636 C   0  0  0  0  0  0  0  0  0  0  0  0
    2.2187    4.3406   -6.7738 C   0  0  0  0  0  0  0  0  0  0  0  0
    1.0266    3.5282   -7.2794 C   0  0  0  0  0  0  0  0  0  0  0  0
    1.3402    2.8458   -8.5827 C   0  0  0  0  0  0  0  0  0  0  0  0
    1.7231    3.3858   -9.6057 O   0  0  0  0  0  0  0  0  0  0  0  0
    1.1601    1.5136   -8.5316 O   0  0  0  0  0  0  0  0  0  0  0  0
    4.4773    3.2368   -7.0963 C   0  0  0  0  0  0  0  0  0  0  0  0
    4.8922    3.6913   -8.4429 C   0  0  0  0  0  0  0  0  0  0  0  0
    8.2398   -0.0412   -6.6997 C   0  0  0  0  0  0  0  0  0  0  0  0
    9.0725    0.5060   -7.8101 C   0  0  0  0  0  0  0  0  0  0  0  0
    8.4467   -1.1609   -5.9593 C   0  0  0  0  0  0  0  0  0  0  0  0
    9.5492   -2.0708   -6.1802 C   0  0  0  0  0  0  0  0  0  0  0  0
   10.4650   -2.3842   -5.2559 C   0  0  0  0  0  0  0  0  0  0  0  0
    3.4355   -5.5964    0.3361 H   0  0  0  0  0  0  0  0  0  0  0  0
    3.8912   -5.5945   -1.4620 H   0  0  0  0  0  0  0  0  0  0  0  0
    4.2064   -3.3144    0.5830 H   0  0  0  0  0  0  0  0  0  0  0  0
    6.5030   -5.2792   -1.3944 H   0  0  0  0  0  0  0  0  0  0  0  0
    7.8250   -4.2902   -1.9912 H   0  0  0  0  0  0  0  0  0  0  0  0
    6.7292   -5.0969   -3.1354 H   0  0  0  0  0  0  0  0  0  0  0  0
    7.9328   -2.9991   -3.9741 H   0  0  0  0  0  0  0  0  0  0  0  0
    5.7723    0.0882   -4.6227 H   0  0  0  0  0  0  0  0  0  0  0  0
    6.9728    2.2679   -7.5355 H   0  0  0  0  0  0  0  0  0  0  0  0
    1.7670    3.5596   -4.1733 H   0  0  0  0  0  0  0  0  0  0  0  0
    3.8010    0.4963   -3.5145 H   0  0  0  0  0  0  0  0  0  0  0  0
    2.9198   -1.4452   -0.4281 H   0  0  0  0  0  0  0  0  0  0  0  0
    2.5455    0.3527    1.1659 H   0  0  0  0  0  0  0  0  0  0  0  0
    0.9004    0.8265    0.7181 H   0  0  0  0  0  0  0  0  0  0  0  0
    2.0828    2.0499    1.2286 H   0  0  0  0  0  0  0  0  0  0  0  0
    1.9991    4.5656   -1.6315 H   0  0  0  0  0  0  0  0  0  0  0  0
    1.5964    3.8677   -0.0794 H   0  0  0  0  0  0  0  0  0  0  0  0
   -0.1748    3.6014   -2.5942 H   0  0  0  0  0  0  0  0  0  0  0  0
   -0.3711    4.8117   -1.3448 H   0  0  0  0  0  0  0  0  0  0  0  0
   -0.3270    1.4596   -1.9693 H   0  0  0  0  0  0  0  0  0  0  0  0
    2.5290    5.0507   -7.5496 H   0  0  0  0  0  0  0  0  0  0  0  0
    1.9031    4.9672   -5.9313 H   0  0  0  0  0  0  0  0  0  0  0  0
    0.1663    4.1837   -7.4553 H   0  0  0  0  0  0  0  0  0  0  0  0
    0.7126    2.7851   -6.5378 H   0  0  0  0  0  0  0  0  0  0  0  0
    1.4200    1.1928   -9.4205 H   0  0  0  0  0  0  0  0  0  0  0  0
    4.1656    4.3687   -8.8977 H   0  0  0  0  0  0  0  0  0  0  0  0
    5.0095    2.8365   -9.1170 H   0  0  0  0  0  0  0  0  0  0  0  0
    5.8446    4.2278   -8.3910 H   0  0  0  0  0  0  0  0  0  0  0  0
    9.4229    1.5145   -7.5655 H   0  0  0  0  0  0  0  0  0  0  0  0
    8.4936    0.5542   -8.7382 H   0  0  0  0  0  0  0  0  0  0  0  0
    9.9590   -0.1037   -8.0086 H   0  0  0  0  0  0  0  0  0  0  0  0
    9.6288   -2.4925   -7.1799 H   0  0  0  0  0  0  0  0  0  0  0  0
   10.4402   -1.9583   -4.2575 H   0  0  0  0  0  0  0  0  0  0  0  0
   11.2781   -3.0628   -5.4931 H   0  0  0  0  0  0  0  0  0  0  0  0
  1  2  2  0  0  0  0
  1 43  1  0  0  0  0
  1 44  1  0  0  0  0
  2  3  1  0  0  0  0
  2 45  1  0  0  0  0
  3  4  2  0  0  0  0
  3 20  1  0  0  0  0
  4  5  1  0  0  0  0
  4  6  1  0  0  0  0
  5 46  1  0  0  0  0
  5 47  1  0  0  0  0
  5 48  1  0  0  0  0
  6  7  1  0  0  0  0
  6 21  2  0  0  0  0
  7  8  2  0  0  0  0
  7 49  1  0  0  0  0
  8  9  1  0  0  0  0
  8 40  1  0  0  0  0
  9 10  1  0  0  0  0
  9 50  1  0  0  0  0
 10 11  2  0  0  0  0
 10 38  1  0  0  0  0
 11 12  1  0  0  0  0
 11 51  1  0  0  0  0
 12 13  2  0  0  0  0
 12 36  1  0  0  0  0
 13 14  1  0  0  0  0
 14 15  2  0  0  0  0
 14 30  1  0  0  0  0
 15 16  1  0  0  0  0
 15 52  1  0  0  0  0
 16 17  1  0  0  0  0
 16 24  2  0  0  0  0
 17 18  1  0  0  0  0
 17 53  1  0  0  0  0
 18 19  1  0  0  0  0
 18 22  2  0  0  0  0
 19 20  2  0  0  0  0
 19 54  1  0  0  0  0
 20 21  1  0  0  0  0
 22 23  1  0  0  0  0
 22 24  1  0  0  0  0
 23 55  1  0  0  0  0
 23 56  1  0  0  0  0
 23 57  1  0  0  0  0
 24 25  1  0  0  0  0
 25 26  1  0  0  0  0
 25 58  1  0  0  0  0
 25 59  1  0  0  0  0
 26 27  1  0  0  0  0
 26 60  1  0  0  0  0
 26 61  1  0  0  0  0
 27 28  2  0  0  0  0
 27 29  1  0  0  0  0
 29 62  1  0  0  0  0
 30 31  1  0  0  0  0
 30 36  2  0  0  0  0
 31 32  1  0  0  0  0
 31 63  1  0  0  0  0
 31 64  1  0  0  0  0
 32 33  1  0  0  0  0
 32 65  1  0  0  0  0
 32 66  1  0  0  0  0
 33 34  2  0  0  0  0
 33 35  1  0  0  0  0
 35 67  1  0  0  0  0
 36 37  1  0  0  0  0
 37 68  1  0  0  0  0
 37 69  1  0  0  0  0
 37 70  1  0  0  0  0
 38 39  1  0  0  0  0
 38 40  2  0  0  0  0
 39 71  1  0  0  0  0
 39 72  1  0  0  0  0
 39 73  1  0  0  0  0
 40 41  1  0  0  0  0
 41 42  2  0  0  0  0
 41 74  1  0  0  0  0
 42 75  1  0  0  0  0
 42 76  1  0  0  0  0
M  END
$$$$
