CHEBI:4932
 OpenBabel04242411023D

 41 43  0  0  0  0  0  0  0  0999 V2000
    1.9261    0.7326    1.3874 C   0  0  0  0  0  0  0  0  0  0  0  0
    3.2900    0.6505    1.7915 O   0  0  0  0  0  0  0  0  0  0  0  0
    3.5922   -0.4338    2.5743 C   0  0  0  0  0  0  0  0  0  0  0  0
    4.4502   -0.1512    3.6392 C   0  0  0  0  0  0  0  0  0  0  0  0
    4.8578   -1.1610    4.5133 C   0  0  0  0  0  0  0  0  0  0  0  0
    4.4095   -2.4774    4.3420 C   0  0  0  0  0  0  0  0  0  0  0  0
    4.8304   -3.5691    5.2507 C   0  0  0  0  0  0  0  0  0  0  0  0
    5.0574   -3.3668    6.5566 C   0  0  0  0  0  0  0  0  0  0  0  0
    5.4872   -4.4959    7.3931 C   0  0  0  0  0  0  0  0  0  0  0  0
    5.7225   -4.3508    8.5878 O   0  0  0  0  0  0  0  0  0  0  0  0
    5.6279   -5.8076    6.7447 C   0  0  0  0  0  0  0  0  0  0  0  0
    6.0358   -6.9484    7.4659 C   0  0  0  0  0  0  0  0  0  0  0  0
    6.3188   -6.8565    8.8054 O   0  0  0  0  0  0  0  0  0  0  0  0
    6.1459   -8.1779    6.8049 C   0  0  0  0  0  0  0  0  0  0  0  0
    6.5217   -9.3972    7.3101 O   0  0  0  0  0  0  0  0  0  0  0  0
    6.9443   -9.4629    8.6656 C   0  0  0  0  0  0  0  0  0  0  0  0
    5.8346   -8.2266    5.4350 C   0  0  0  0  0  0  0  0  0  0  0  0
    5.9213   -9.4134    4.7544 O   0  0  0  0  0  0  0  0  0  0  0  0
    5.4369   -7.1034    4.7204 C   0  0  0  0  0  0  0  0  0  0  0  0
    5.3375   -5.8860    5.3827 C   0  0  0  0  0  0  0  0  0  0  0  0
    4.9497   -4.8051    4.6324 O   0  0  0  0  0  0  0  0  0  0  0  0
    3.5744   -2.7572    3.2443 C   0  0  0  0  0  0  0  0  0  0  0  0
    3.1845   -1.7548    2.3422 C   0  0  0  0  0  0  0  0  0  0  0  0
    2.4071   -2.0051    1.2418 O   0  0  0  0  0  0  0  0  0  0  0  0
    2.5183   -3.3064    0.6747 C   0  0  0  0  0  0  0  0  0  0  0  0
    1.2379    0.3335    2.1412 H   0  0  0  0  0  0  0  0  0  0  0  0
    1.7842    0.2382    0.4221 H   0  0  0  0  0  0  0  0  0  0  0  0
    1.6861    1.7917    1.2505 H   0  0  0  0  0  0  0  0  0  0  0  0
    4.8021    0.8669    3.7886 H   0  0  0  0  0  0  0  0  0  0  0  0
    5.5381   -0.8967    5.3193 H   0  0  0  0  0  0  0  0  0  0  0  0
    4.9441   -2.4136    7.0560 H   0  0  0  0  0  0  0  0  0  0  0  0
    6.1848   -5.9269    9.1002 H   0  0  0  0  0  0  0  0  0  0  0  0
    6.1195   -9.2379    9.3485 H   0  0  0  0  0  0  0  0  0  0  0  0
    7.8166   -8.8261    8.8438 H   0  0  0  0  0  0  0  0  0  0  0  0
    7.2531  -10.4945    8.8627 H   0  0  0  0  0  0  0  0  0  0  0  0
    6.2108  -10.0677    5.4217 H   0  0  0  0  0  0  0  0  0  0  0  0
    5.2106   -7.1834    3.6615 H   0  0  0  0  0  0  0  0  0  0  0  0
    3.2215   -3.7753    3.1057 H   0  0  0  0  0  0  0  0  0  0  0  0
    2.0991   -3.2668   -0.3353 H   0  0  0  0  0  0  0  0  0  0  0  0
    1.9313   -4.0285    1.2507 H   0  0  0  0  0  0  0  0  0  0  0  0
    3.5626   -3.6267    0.5889 H   0  0  0  0  0  0  0  0  0  0  0  0
  1  2  1  0  0  0  0
  1 26  1  0  0  0  0
  1 27  1  0  0  0  0
  1 28  1  0  0  0  0
  2  3  1  0  0  0  0
  3  4  1  0  0  0  0
  3 23  2  0  0  0  0
  4  5  2  0  0  0  0
  4 29  1  0  0  0  0
  5  6  1  0  0  0  0
  5 30  1  0  0  0  0
  6  7  1  0  0  0  0
  6 22  2  0  0  0  0
  7  8  2  0  0  0  0
  7 21  1  0  0  0  0
  8  9  1  0  0  0  0
  8 31  1  0  0  0  0
  9 10  2  0  0  0  0
  9 11  1  0  0  0  0
 11 12  1  0  0  0  0
 11 20  2  0  0  0  0
 12 13  1  0  0  0  0
 12 14  2  0  0  0  0
 13 32  1  0  0  0  0
 14 15  1  0  0  0  0
 14 17  1  0  0  0  0
 15 16  1  0  0  0  0
 16 33  1  0  0  0  0
 16 34  1  0  0  0  0
 16 35  1  0  0  0  0
 17 18  1  0  0  0  0
 17 19  2  0  0  0  0
 18 36  1  0  0  0  0
 19 20  1  0  0  0  0
 19 37  1  0  0  0  0
 20 21  1  0  0  0  0
 22 23  1  0  0  0  0
 22 38  1  0  0  0  0
 23 24  1  0  0  0  0
 24 25  1  0  0  0  0
 25 39  1  0  0  0  0
 25 40  1  0  0  0  0
 25 41  1  0  0  0  0
M  END
$$$$
