CHEBI:6698
 OpenBabel04242411073D

 48 50  0  0  1  0  0  0  0  0999 V2000
    4.2723   -2.3281   -2.4136 C   0  0  0  0  0  0  0  0  0  0  0  0
    4.7174   -1.3068   -1.5316 O   0  0  0  0  0  0  0  0  0  0  0  0
    4.8927   -0.0475   -2.0403 C   0  0  0  0  0  0  0  0  0  0  0  0
    5.1981    0.9053   -1.0538 C   0  0  0  0  0  0  0  0  0  0  0  0
    5.3933    2.2577   -1.3721 C   0  0  0  0  0  0  0  0  0  0  0  0
    5.7265    3.2667   -0.2965 C   0  0  0  0  0  0  0  0  0  0  0  0
    7.2425    3.3905   -0.0041 C   0  0  1  0  0  0  0  0  0  0  0  0
    7.9828    4.0907   -1.1321 C   0  0  0  0  0  0  0  0  0  0  0  0
    7.8700    5.4874   -0.8582 O   0  0  0  0  0  0  0  0  0  0  0  0
    7.6855    5.6675    0.4796 C   0  0  0  0  0  0  0  0  0  0  0  0
    7.6911    6.7575    1.0311 O   0  0  0  0  0  0  0  0  0  0  0  0
    7.4847    4.3450    1.1712 C   0  0  2  0  0  0  0  0  0  0  0  0
    8.6654    4.0241    2.1033 C   0  0  0  0  0  0  0  0  0  0  0  0
   10.0172    3.8538    1.4481 C   0  0  0  0  0  0  0  0  0  0  0  0
   10.4114    2.5964    0.9638 C   0  0  0  0  0  0  0  0  0  0  0  0
   11.6073    2.4520    0.2644 C   0  0  0  0  0  0  0  0  0  0  0  0
   12.4248    3.5580    0.0826 C   0  0  0  0  0  0  0  0  0  0  0  0
   13.5832    3.3956   -0.6276 O   0  0  0  0  0  0  0  0  0  0  0  0
   12.0902    4.8103    0.6070 C   0  0  0  0  0  0  0  0  0  0  0  0
   13.0110    5.7999    0.3759 O   0  0  0  0  0  0  0  0  0  0  0  0
   12.8969    6.9630    1.1894 C   0  0  0  0  0  0  0  0  0  0  0  0
   10.8742    4.9584    1.2774 C   0  0  0  0  0  0  0  0  0  0  0  0
    5.2757    2.6524   -2.7081 C   0  0  0  0  0  0  0  0  0  0  0  0
    5.0013    1.7140   -3.7035 C   0  0  0  0  0  0  0  0  0  0  0  0
    4.8114    0.3690   -3.3732 C   0  0  0  0  0  0  0  0  0  0  0  0
    4.5530   -0.5119   -4.3866 O   0  0  0  0  0  0  0  0  0  0  0  0
    4.0937   -3.2271   -1.8149 H   0  0  0  0  0  0  0  0  0  0  0  0
    5.0450   -2.5783   -3.1471 H   0  0  0  0  0  0  0  0  0  0  0  0
    3.3217   -2.0657   -2.8896 H   0  0  0  0  0  0  0  0  0  0  0  0
    5.2684    0.5750   -0.0188 H   0  0  0  0  0  0  0  0  0  0  0  0
    5.2040    2.9648    0.6216 H   0  0  0  0  0  0  0  0  0  0  0  0
    5.3000    4.2411   -0.5684 H   0  0  0  0  0  0  0  0  0  0  0  0
    7.6394    2.3866    0.1781 H   0  0  0  0  0  0  0  0  0  0  0  0
    7.5828    3.8894   -2.1260 H   0  0  0  0  0  0  0  0  0  0  0  0
    9.0448    3.8341   -1.1656 H   0  0  0  0  0  0  0  0  0  0  0  0
    6.5794    4.4241    1.7858 H   0  0  0  0  0  0  0  0  0  0  0  0
    8.7490    4.8157    2.8610 H   0  0  0  0  0  0  0  0  0  0  0  0
    8.4339    3.1112    2.6675 H   0  0  0  0  0  0  0  0  0  0  0  0
    9.7752    1.7247    1.1009 H   0  0  0  0  0  0  0  0  0  0  0  0
   11.8968    1.4882   -0.1431 H   0  0  0  0  0  0  0  0  0  0  0  0
   13.9845    4.2862   -0.6568 H   0  0  0  0  0  0  0  0  0  0  0  0
   13.7926    7.5708    1.0266 H   0  0  0  0  0  0  0  0  0  0  0  0
   12.8606    6.7059    2.2537 H   0  0  0  0  0  0  0  0  0  0  0  0
   12.0288    7.5608    0.8959 H   0  0  0  0  0  0  0  0  0  0  0  0
   10.5627    5.9281    1.6569 H   0  0  0  0  0  0  0  0  0  0  0  0
    5.4056    3.6957   -2.9894 H   0  0  0  0  0  0  0  0  0  0  0  0
    4.9387    2.0531   -4.7336 H   0  0  0  0  0  0  0  0  0  0  0  0
    4.5576   -0.0353   -5.2324 H   0  0  0  0  0  0  0  0  0  0  0  0
  1  2  1  0  0  0  0
  1 27  1  0  0  0  0
  1 28  1  0  0  0  0
  1 29  1  0  0  0  0
  2  3  1  0  0  0  0
  3  4  1  0  0  0  0
  3 25  2  0  0  0  0
  4  5  2  0  0  0  0
  4 30  1  0  0  0  0
  5  6  1  0  0  0  0
  5 23  1  0  0  0  0
  6  7  1  0  0  0  0
  6 31  1  0  0  0  0
  6 32  1  0  0  0  0
  7  8  1  0  0  0  0
  7 12  1  0  0  0  0
  7 33  1  1  0  0  0
  8  9  1  0  0  0  0
  8 34  1  0  0  0  0
  8 35  1  0  0  0  0
  9 10  1  0  0  0  0
 10 11  2  0  0  0  0
 10 12  1  0  0  0  0
 12 13  1  0  0  0  0
 12 36  1  1  0  0  0
 13 14  1  0  0  0  0
 13 37  1  0  0  0  0
 13 38  1  0  0  0  0
 14 15  1  0  0  0  0
 14 22  2  0  0  0  0
 15 16  2  0  0  0  0
 15 39  1  0  0  0  0
 16 17  1  0  0  0  0
 16 40  1  0  0  0  0
 17 18  1  0  0  0  0
 17 19  2  0  0  0  0
 18 41  1  0  0  0  0
 19 20  1  0  0  0  0
 19 22  1  0  0  0  0
 20 21  1  0  0  0  0
 21 42  1  0  0  0  0
 21 43  1  0  0  0  0
 21 44  1  0  0  0  0
 22 45  1  0  0  0  0
 23 24  2  0  0  0  0
 23 46  1  0  0  0  0
 24 25  1  0  0  0  0
 24 47  1  0  0  0  0
 25 26  1  0  0  0  0
 26 48  1  0  0  0  0
M  END
$$$$
