CHEBI:17285
 OpenBabel04242416123D

 17 16  0  0  1  0  0  0  0  0999 V2000
    1.0852   -0.0907   -0.2181 N   0  0  0  0  0  0  0  0  0  0  0  0
    2.5512   -0.1444    0.1102 C   0  0  1  0  0  0  0  0  0  0  0  0
    2.8092    0.1596    1.5787 C   0  0  0  0  0  0  0  0  0  0  0  0
    4.5499    0.3837    1.9404 S   0  0  0  0  0  0  0  0  0  0  0  0
    5.2450    0.7656    0.7334 O   0  0  0  0  0  0  0  0  0  0  0  0
    4.6551    1.1506    3.1612 O   0  0  0  0  0  0  0  0  0  0  0  0
    4.9355   -1.1467    2.2801 O   0  0  0  0  0  0  0  0  0  0  0  0
    3.0601   -1.5457   -0.2669 C   0  0  0  0  0  0  0  0  0  0  0  0
    4.1143   -2.0382    0.1072 O   0  0  0  0  0  0  0  0  0  0  0  0
    2.1841   -2.1905   -1.0761 O   0  0  0  0  0  0  0  0  0  0  0  0
    0.8006    0.8945   -0.2486 H   0  0  0  0  0  0  0  0  0  0  0  0
    0.5482   -0.4850    0.5629 H   0  0  0  0  0  0  0  0  0  0  0  0
    3.0540    0.5672   -0.5531 H   0  0  0  0  0  0  0  0  0  0  0  0
    2.4259   -0.6165    2.2499 H   0  0  0  0  0  0  0  0  0  0  0  0
    2.3295    1.1065    1.8533 H   0  0  0  0  0  0  0  0  0  0  0  0
    5.0542   -1.6593    1.4368 H   0  0  0  0  0  0  0  0  0  0  0  0
    1.4175   -1.5760   -1.2076 H   0  0  0  0  0  0  0  0  0  0  0  0
  1  2  1  0  0  0  0
  1 11  1  0  0  0  0
  1 12  1  0  0  0  0
  2  3  1  0  0  0  0
  2  8  1  0  0  0  0
  2 13  1  6  0  0  0
  3  4  1  0  0  0  0
  3 14  1  0  0  0  0
  3 15  1  0  0  0  0
  4  5  2  0  0  0  0
  4  6  2  0  0  0  0
  4  7  1  0  0  0  0
  7 16  1  0  0  0  0
  8  9  2  0  0  0  0
  8 10  1  0  0  0  0
 10 17  1  0  0  0  0
M  END
$$$$
