CHEBI:16742
 OpenBabel04242415093D

 15 15  0  0  0  0  0  0  0  0999 V2000
    2.7942    0.9755   -0.0989 O   0  0  0  0  0  0  0  0  0  0  0  0
    2.2161   -0.1003   -0.0431 C   0  0  0  0  0  0  0  0  0  0  0  0
    0.9714   -0.2833   -0.5230 O   0  0  0  0  0  0  0  0  0  0  0  0
    2.8392   -1.2830    0.6143 C   0  0  0  0  0  0  0  0  0  0  0  0
    2.4891   -2.5453    0.3439 C   0  0  0  0  0  0  0  0  0  0  0  0
    3.1969   -3.6369    1.0402 C   0  0  0  0  0  0  0  0  0  0  0  0
    2.8858   -4.8036    0.8344 O   0  0  0  0  0  0  0  0  0  0  0  0
    4.1851   -3.2678    1.9038 N   0  0  0  0  0  0  0  0  0  0  0  0
    4.5696   -1.9821    2.1528 C   0  0  0  0  0  0  0  0  0  0  0  0
    5.4863   -1.7114    2.9190 O   0  0  0  0  0  0  0  0  0  0  0  0
    3.8638   -1.0219    1.4916 N   0  0  0  0  0  0  0  0  0  0  0  0
    0.5161   -1.1011   -0.2552 H   0  0  0  0  0  0  0  0  0  0  0  0
    1.7394   -2.8489   -0.3733 H   0  0  0  0  0  0  0  0  0  0  0  0
    4.6915   -3.9985    2.3805 H   0  0  0  0  0  0  0  0  0  0  0  0
    4.1469   -0.0545    1.6358 H   0  0  0  0  0  0  0  0  0  0  0  0
  1  2  2  0  0  0  0
  2  3  1  0  0  0  0
  2  4  1  0  0  0  0
  3 12  1  0  0  0  0
  4  5  2  0  0  0  0
  4 11  1  0  0  0  0
  5  6  1  0  0  0  0
  5 13  1  0  0  0  0
  6  7  2  0  0  0  0
  6  8  1  0  0  0  0
  8  9  1  0  0  0  0
  8 14  1  0  0  0  0
  9 10  2  0  0  0  0
  9 11  1  0  0  0  0
 11 15  1  0  0  0  0
M  END
$$$$
