CHEBI:7569
 OpenBabel04242411103D

119124  0  0  1  0  0  0  0  0999 V2000
    2.0453   26.4026    5.0695 C   0  0  0  0  0  0  0  0  0  0  0  0
    1.6728   26.3332    6.4378 O   0  0  0  0  0  0  0  0  0  0  0  0
    1.0447   27.5141    6.9462 C   0  0  2  0  0  0  0  0  0  0  0  0
    1.9908   28.7078    6.9911 C   0  0  0  0  0  0  0  0  0  0  0  0
    3.0582   28.5432    8.0743 C   0  0  1  0  0  0  0  0  0  0  0  0
    3.8687   29.8494    8.1445 C   0  0  0  0  0  0  0  0  0  0  0  0
    5.0375   29.8899    9.1408 C   0  0  1  0  0  0  0  0  0  0  0  0
    6.1004   28.8397    8.8112 C   0  0  0  0  0  0  0  0  0  0  0  0
    7.4112   29.1021    9.5388 C   0  0  0  0  0  0  0  0  0  0  0  0
    7.8568   30.5464    9.3380 C   0  0  2  0  0  0  0  0  0  0  0  0
    9.2500   30.7639    9.9151 C   0  0  0  0  0  0  0  0  0  0  0  0
    6.7528   31.5108    9.8307 C   0  0  2  0  0  0  0  0  0  0  0  0
    6.3993   31.5452   11.3422 C   0  0  1  0  0  0  0  0  0  0  0  0
    5.1707   32.4272   11.6077 C   0  0  0  0  0  0  0  0  0  0  0  0
    7.5143   32.1053   12.2016 C   0  0  0  0  0  0  0  0  0  0  0  0
    8.3688   32.8950   11.8248 O   0  0  0  0  0  0  0  0  0  0  0  0
    7.4557   31.6837   13.4876 O   0  0  0  0  0  0  0  0  0  0  0  0
    5.5720   31.2279    9.0438 O   0  0  0  0  0  0  0  0  0  0  0  0
    2.4432   28.3269    9.3418 O   0  0  0  0  0  0  0  0  0  0  0  0
    1.5980   27.1670    9.4230 C   0  0  1  0  0  0  0  0  0  0  0  0
    2.3535   25.9611    9.2281 O   0  0  0  0  0  0  0  0  0  0  0  0
    2.7091   25.3851   10.4917 C   0  0  2  0  0  0  0  0  0  0  0  0
    4.0328   26.0003   10.9430 C   0  0  0  0  0  0  0  0  0  0  0  0
    2.8308   23.8354   10.3806 C   0  0  1  0  0  0  0  0  0  0  0  0
    3.5261   23.2966    9.1345 C   0  0  0  0  0  0  0  0  0  0  0  0
    4.7874   22.6443    9.6486 C   0  0  0  0  0  0  0  0  0  0  0  0
    4.4591   22.2570   11.0902 C   0  0  1  0  0  0  0  0  0  0  0  0
    3.6914   20.9316   11.1929 C   0  0  0  0  0  0  0  0  0  0  0  0
    5.6884   22.2757   12.0470 C   0  0  2  0  0  0  0  0  0  0  0  0
    6.5130   23.4390   11.8116 O   0  0  0  0  0  0  0  0  0  0  0  0
    7.8789   23.1572   12.1787 C   0  0  1  0  0  0  0  0  0  0  0  0
    8.4521   24.2641   13.0894 C   0  0  1  0  0  0  0  0  0  0  0  0
    9.7725   23.8980   13.5165 O   0  0  0  0  0  0  0  0  0  0  0  0
   10.3245   24.7724   14.5163 C   0  0  1  0  0  0  0  0  0  0  0  0
    9.5478   24.6657   15.7080 O   0  0  0  0  0  0  0  0  0  0  0  0
   11.7539   24.2149   14.7764 C   0  0  0  0  0  0  0  0  0  0  0  0
   12.3996   24.8144   15.8953 O   0  0  0  0  0  0  0  0  0  0  0  0
   10.3583   26.2528   14.0433 C   0  0  2  0  0  0  0  0  0  0  0  0
   10.6847   27.2785   15.1365 C   0  0  0  0  0  0  0  0  0  0  0  0
    9.0219   26.6648   13.4179 C   0  0  0  0  0  0  0  0  0  0  0  0
    8.5521   25.6340   12.3930 C   0  0  2  0  0  0  0  0  0  0  0  0
    7.2508   26.1144   11.7812 C   0  0  0  0  0  0  0  0  0  0  0  0
    7.8510   21.7671   12.8054 C   0  0  0  0  0  0  0  0  0  0  0  0
    6.6775   21.1027   12.0853 C   0  0  2  0  0  0  0  0  0  0  0  0
    7.1300   20.5590   10.7295 C   0  0  0  0  0  0  0  0  0  0  0  0
    3.5196   23.2844   11.5269 O   0  0  0  0  0  0  0  0  0  0  0  0
    1.5691   25.7836   11.4295 C   0  0  0  0  0  0  0  0  0  0  0  0
    1.0331   27.0966   10.8698 C   0  0  1  0  0  0  0  0  0  0  0  0
    1.3609   28.2857   11.7751 C   0  0  0  0  0  0  0  0  0  0  0  0
    0.4723   27.2487    8.3568 C   0  0  2  0  0  0  0  0  0  0  0  0
   -0.4336   26.0085    8.3265 C   0  0  0  0  0  0  0  0  0  0  0  0
    2.1783   25.3817    4.7007 H   0  0  0  0  0  0  0  0  0  0  0  0
    2.9999   26.9256    4.9662 H   0  0  0  0  0  0  0  0  0  0  0  0
    1.2759   26.8923    4.4651 H   0  0  0  0  0  0  0  0  0  0  0  0
    0.2046   27.7553    6.2811 H   0  0  0  0  0  0  0  0  0  0  0  0
    1.3915   29.6021    7.2077 H   0  0  0  0  0  0  0  0  0  0  0  0
    2.4718   28.8707    6.0209 H   0  0  0  0  0  0  0  0  0  0  0  0
    3.7179   27.7011    7.8374 H   0  0  0  0  0  0  0  0  0  0  0  0
    3.1922   30.6752    8.4074 H   0  0  0  0  0  0  0  0  0  0  0  0
    4.2546   30.0944    7.1453 H   0  0  0  0  0  0  0  0  0  0  0  0
    4.6556   29.7370   10.1564 H   0  0  0  0  0  0  0  0  0  0  0  0
    6.3047   28.8496    7.7333 H   0  0  0  0  0  0  0  0  0  0  0  0
    5.7384   27.8363    9.0590 H   0  0  0  0  0  0  0  0  0  0  0  0
    8.1746   28.4018    9.1805 H   0  0  0  0  0  0  0  0  0  0  0  0
    7.2839   28.9230   10.6074 H   0  0  0  0  0  0  0  0  0  0  0  0
    7.9457   30.7008    8.2522 H   0  0  0  0  0  0  0  0  0  0  0  0
    9.3076   30.4930   10.9729 H   0  0  0  0  0  0  0  0  0  0  0  0
    9.5678   31.8033    9.7892 H   0  0  0  0  0  0  0  0  0  0  0  0
    9.9783   30.1393    9.3844 H   0  0  0  0  0  0  0  0  0  0  0  0
    7.0561   32.5239    9.5363 H   0  0  0  0  0  0  0  0  0  0  0  0
    6.1758   30.5296   11.6856 H   0  0  0  0  0  0  0  0  0  0  0  0
    5.3575   33.4615   11.2960 H   0  0  0  0  0  0  0  0  0  0  0  0
    4.9266   32.4501   12.6759 H   0  0  0  0  0  0  0  0  0  0  0  0
    4.2850   32.0648   11.0786 H   0  0  0  0  0  0  0  0  0  0  0  0
    6.6897   31.1130   13.6910 H   0  0  0  0  0  0  0  0  0  0  0  0
    4.0108   27.0925   10.9559 H   0  0  0  0  0  0  0  0  0  0  0  0
    4.8289   25.7269   10.2449 H   0  0  0  0  0  0  0  0  0  0  0  0
    4.2997   25.6631   11.9481 H   0  0  0  0  0  0  0  0  0  0  0  0
    1.8185   23.4108   10.3824 H   0  0  0  0  0  0  0  0  0  0  0  0
    3.7293   24.0510    8.3693 H   0  0  0  0  0  0  0  0  0  0  0  0
    2.8877   22.5387    8.6631 H   0  0  0  0  0  0  0  0  0  0  0  0
    5.5896   23.3886    9.6023 H   0  0  0  0  0  0  0  0  0  0  0  0
    5.0965   21.7971    9.0297 H   0  0  0  0  0  0  0  0  0  0  0  0
    4.2505   20.0877   10.7847 H   0  0  0  0  0  0  0  0  0  0  0  0
    2.7312   20.9794   10.6674 H   0  0  0  0  0  0  0  0  0  0  0  0
    3.4521   20.7104   12.2396 H   0  0  0  0  0  0  0  0  0  0  0  0
    5.2978   22.4156   13.0657 H   0  0  0  0  0  0  0  0  0  0  0  0
    8.4669   23.1191   11.2528 H   0  0  0  0  0  0  0  0  0  0  0  0
    7.7909   24.3455   13.9627 H   0  0  0  0  0  0  0  0  0  0  0  0
   10.1164   24.2293   16.3675 H   0  0  0  0  0  0  0  0  0  0  0  0
   12.3865   24.3128   13.8860 H   0  0  0  0  0  0  0  0  0  0  0  0
   11.6881   23.1432   14.9962 H   0  0  0  0  0  0  0  0  0  0  0  0
   12.9820   25.5141   15.5493 H   0  0  0  0  0  0  0  0  0  0  0  0
   11.1139   26.3403   13.2504 H   0  0  0  0  0  0  0  0  0  0  0  0
    9.9974   27.1965   15.9853 H   0  0  0  0  0  0  0  0  0  0  0  0
   10.5953   28.2987   14.7441 H   0  0  0  0  0  0  0  0  0  0  0  0
   11.7046   27.1775   15.5083 H   0  0  0  0  0  0  0  0  0  0  0  0
    9.1315   27.6451   12.9352 H   0  0  0  0  0  0  0  0  0  0  0  0
    8.2581   26.7835   14.1986 H   0  0  0  0  0  0  0  0  0  0  0  0
    9.3103   25.5803   11.5995 H   0  0  0  0  0  0  0  0  0  0  0  0
    6.4204   25.9716   12.4765 H   0  0  0  0  0  0  0  0  0  0  0  0
    7.0463   25.5967   10.8400 H   0  0  0  0  0  0  0  0  0  0  0  0
    7.2973   27.1751   11.5537 H   0  0  0  0  0  0  0  0  0  0  0  0
    7.6272   21.8354   13.8776 H   0  0  0  0  0  0  0  0  0  0  0  0
    8.8015   21.2355   12.6978 H   0  0  0  0  0  0  0  0  0  0  0  0
    6.2763   20.2719   12.6764 H   0  0  0  0  0  0  0  0  0  0  0  0
    7.4737   21.3487   10.0549 H   0  0  0  0  0  0  0  0  0  0  0  0
    6.3280   20.0153   10.2257 H   0  0  0  0  0  0  0  0  0  0  0  0
    7.9564   19.8515   10.8621 H   0  0  0  0  0  0  0  0  0  0  0  0
    1.8722   25.8350   12.4805 H   0  0  0  0  0  0  0  0  0  0  0  0
    0.7562   25.0481   11.3729 H   0  0  0  0  0  0  0  0  0  0  0  0
   -0.0614   27.0388   10.8559 H   0  0  0  0  0  0  0  0  0  0  0  0
    2.4358   28.3984   11.9432 H   0  0  0  0  0  0  0  0  0  0  0  0
    0.8879   28.1581   12.7551 H   0  0  0  0  0  0  0  0  0  0  0  0
    0.9798   29.2177   11.3444 H   0  0  0  0  0  0  0  0  0  0  0  0
   -0.1512   28.1195    8.6065 H   0  0  0  0  0  0  0  0  0  0  0  0
    0.1327   25.0897    8.1438 H   0  0  0  0  0  0  0  0  0  0  0  0
   -1.1828   26.1030    7.5326 H   0  0  0  0  0  0  0  0  0  0  0  0
   -0.9790   25.8823    9.2656 H   0  0  0  0  0  0  0  0  0  0  0  0
  1  2  1  0  0  0  0
  1 52  1  0  0  0  0
  1 53  1  0  0  0  0
  1 54  1  0  0  0  0
  2  3  1  0  0  0  0
  3  4  1  0  0  0  0
  3 50  1  0  0  0  0
  3 55  1  6  0  0  0
  4  5  1  0  0  0  0
  4 56  1  0  0  0  0
  4 57  1  0  0  0  0
  5  6  1  0  0  0  0
  5 19  1  0  0  0  0
  5 58  1  6  0  0  0
  6 59  1  0  0  0  0
  6 60  1  0  0  0  0
  7  8  1  0  0  0  0
  7 18  1  0  0  0  0
  7  6  1  0  0  0  0
  7 61  1  1  0  0  0
  8  9  1  0  0  0  0
  8 62  1  0  0  0  0
  8 63  1  0  0  0  0
  9 10  1  0  0  0  0
  9 64  1  0  0  0  0
  9 65  1  0  0  0  0
 10 12  1  0  0  0  0
 10 11  1  0  0  0  0
 10 66  1  6  0  0  0
 11 67  1  0  0  0  0
 11 68  1  0  0  0  0
 11 69  1  0  0  0  0
 12 18  1  0  0  0  0
 12 13  1  0  0  0  0
 12 70  1  6  0  0  0
 13 14  1  0  0  0  0
 13 15  1  0  0  0  0
 13 71  1  6  0  0  0
 14 72  1  0  0  0  0
 14 73  1  0  0  0  0
 14 74  1  0  0  0  0
 15 16  2  0  0  0  0
 15 17  1  0  0  0  0
 17 75  1  0  0  0  0
 20 19  1  6  0  0  0
 20 21  1  0  0  0  0
 20 48  1  0  0  0  0
 20 50  1  0  0  0  0
 21 22  1  0  0  0  0
 22 47  1  0  0  0  0
 22 23  1  1  0  0  0
 23 76  1  0  0  0  0
 23 77  1  0  0  0  0
 23 78  1  0  0  0  0
 24 25  1  0  0  0  0
 24 46  1  0  0  0  0
 24 22  1  0  0  0  0
 24 79  1  1  0  0  0
 25 26  1  0  0  0  0
 25 80  1  0  0  0  0
 25 81  1  0  0  0  0
 26 27  1  0  0  0  0
 26 82  1  0  0  0  0
 26 83  1  0  0  0  0
 27 28  1  1  0  0  0
 27 29  1  0  0  0  0
 27 46  1  0  0  0  0
 28 84  1  0  0  0  0
 28 85  1  0  0  0  0
 28 86  1  0  0  0  0
 29 30  1  0  0  0  0
 29 44  1  0  0  0  0
 29 87  1  1  0  0  0
 30 31  1  0  0  0  0
 31 43  1  0  0  0  0
 31 88  1  6  0  0  0
 32 33  1  0  0  0  0
 32 41  1  0  0  0  0
 32 31  1  0  0  0  0
 32 89  1  1  0  0  0
 33 34  1  0  0  0  0
 34 35  1  1  0  0  0
 34 36  1  0  0  0  0
 34 38  1  0  0  0  0
 35 90  1  0  0  0  0
 36 37  1  0  0  0  0
 36 91  1  0  0  0  0
 36 92  1  0  0  0  0
 37 93  1  0  0  0  0
 38 40  1  0  0  0  0
 38 39  1  0  0  0  0
 38 94  1  6  0  0  0
 39 95  1  0  0  0  0
 39 96  1  0  0  0  0
 39 97  1  0  0  0  0
 40 41  1  0  0  0  0
 40 98  1  0  0  0  0
 40 99  1  0  0  0  0
 41 42  1  0  0  0  0
 41100  1  6  0  0  0
 42101  1  0  0  0  0
 42102  1  0  0  0  0
 42103  1  0  0  0  0
 43 44  1  0  0  0  0
 43104  1  0  0  0  0
 43105  1  0  0  0  0
 44 45  1  0  0  0  0
 44106  1  1  0  0  0
 45107  1  0  0  0  0
 45108  1  0  0  0  0
 45109  1  0  0  0  0
 47 48  1  0  0  0  0
 47110  1  0  0  0  0
 47111  1  0  0  0  0
 48 49  1  0  0  0  0
 48112  1  6  0  0  0
 49113  1  0  0  0  0
 49114  1  0  0  0  0
 49115  1  0  0  0  0
 50 51  1  0  0  0  0
 50116  1  1  0  0  0
 51117  1  0  0  0  0
 51118  1  0  0  0  0
 51119  1  0  0  0  0
M  END
$$$$
