CHEBI:15952
 OpenBabel04242413333D

 62 64  0  0  1  0  0  0  0  0999 V2000
   10.3530    8.4927    5.0610 C   0  0  0  0  0  0  0  0  0  0  0  0
    9.1671    7.6389    4.7559 C   0  0  0  0  0  0  0  0  0  0  0  0
    8.8372    7.2053    3.5334 C   0  0  0  0  0  0  0  0  0  0  0  0
    7.6922    6.4653    3.2768 N   0  0  0  0  0  0  0  0  0  0  0  0
    7.3801    6.1547    1.8809 C   0  0  1  0  0  0  0  0  0  0  0  0
    6.7169    4.8176    1.5625 C   0  0  0  0  0  0  0  0  0  0  0  0
    5.8842    5.1586    0.3481 C   0  0  2  0  0  0  0  0  0  0  0  0
    6.7119    4.9913   -0.8106 O   0  0  0  0  0  0  0  0  0  0  0  0
    5.5095    6.6278    0.5661 C   0  0  1  0  0  0  0  0  0  0  0  0
    4.1837    6.8328    1.2983 C   0  0  0  0  0  0  0  0  0  0  0  0
    3.1244    6.4080    0.4595 O   0  0  0  0  0  0  0  0  0  0  0  0
    1.5412    6.8043    1.0332 P   0  0  0  0  0  0  0  0  0  0  0  0
    0.9627    6.1877   -0.2491 O   0  0  0  0  0  0  0  0  0  0  0  0
    1.6040    5.5423    2.0677 O   0  0  0  0  0  0  0  0  0  0  0  0
   -0.0421    7.2006    1.6069 O   0  0  0  0  0  0  0  0  0  0  0  0
   -1.0075    7.9963    0.5979 P   0  0  0  0  0  0  0  0  0  0  0  0
   -0.3847    9.2664    0.1220 O   0  0  0  0  0  0  0  0  0  0  0  0
   -1.3761    6.8856   -0.4946 O   0  0  0  0  0  0  0  0  0  0  0  0
   -2.3502    8.1232    1.4711 O   0  0  0  0  0  0  0  0  0  0  0  0
   -3.5987    8.1230    0.7938 C   0  0  0  0  0  0  0  0  0  0  0  0
   -4.6673    8.0948    1.7567 O   0  0  0  0  0  0  0  0  0  0  0  0
   -4.6479    9.2101    2.6579 C   0  0  2  0  0  0  0  0  0  0  0  0
   -5.8710    9.0568    3.5606 C   0  0  0  0  0  0  0  0  0  0  0  0
   -4.6596   10.5730    1.9154 C   0  0  1  0  0  0  0  0  0  0  0  0
   -4.3911   11.7370    2.7872 N   0  0  0  0  0  0  0  0  0  0  0  0
   -3.6499   10.5962    0.7511 C   0  0  2  0  0  0  0  0  0  0  0  0
   -3.8635   11.7617   -0.0609 O   0  0  0  0  0  0  0  0  0  0  0  0
   -3.8097    9.3463   -0.1100 C   0  0  1  0  0  0  0  0  0  0  0  0
   -2.9052    9.3799   -1.2120 O   0  0  0  0  0  0  0  0  0  0  0  0
    6.5695    7.2115    1.3448 O   0  0  0  0  0  0  0  0  0  0  0  0
    6.7711    6.2212    4.2871 C   0  0  0  0  0  0  0  0  0  0  0  0
    5.6501    5.7439    4.1297 O   0  0  0  0  0  0  0  0  0  0  0  0
    7.1693    6.5607    5.5519 N   0  0  0  0  0  0  0  0  0  0  0  0
    8.2789    7.2793    5.8825 C   0  0  0  0  0  0  0  0  0  0  0  0
    8.5139    7.6247    7.0338 O   0  0  0  0  0  0  0  0  0  0  0  0
   10.9047    8.7603    4.1537 H   0  0  0  0  0  0  0  0  0  0  0  0
   11.0414    7.9699    5.7321 H   0  0  0  0  0  0  0  0  0  0  0  0
   10.0386    9.4256    5.5412 H   0  0  0  0  0  0  0  0  0  0  0  0
    9.4564    7.4588    2.6762 H   0  0  0  0  0  0  0  0  0  0  0  0
    8.3196    6.1835    1.3115 H   0  0  0  0  0  0  0  0  0  0  0  0
    6.0666    4.4445    2.3534 H   0  0  0  0  0  0  0  0  0  0  0  0
    7.4695    4.0436    1.3758 H   0  0  0  0  0  0  0  0  0  0  0  0
    5.0219    4.4971    0.2260 H   0  0  0  0  0  0  0  0  0  0  0  0
    7.1651    5.8300   -1.0044 H   0  0  0  0  0  0  0  0  0  0  0  0
    5.4709    7.1557   -0.3941 H   0  0  0  0  0  0  0  0  0  0  0  0
    4.0519    7.8940    1.5387 H   0  0  0  0  0  0  0  0  0  0  0  0
    4.1496    6.2774    2.2374 H   0  0  0  0  0  0  0  0  0  0  0  0
    1.2617    4.7568    1.5976 H   0  0  0  0  0  0  0  0  0  0  0  0
   -0.5482    6.5244   -0.8939 H   0  0  0  0  0  0  0  0  0  0  0  0
   -3.6866    7.2027    0.2077 H   0  0  0  0  0  0  0  0  0  0  0  0
   -3.7508    9.1263    3.2840 H   0  0  0  0  0  0  0  0  0  0  0  0
   -6.7955    9.1302    2.9759 H   0  0  0  0  0  0  0  0  0  0  0  0
   -5.8955    9.8136    4.3491 H   0  0  0  0  0  0  0  0  0  0  0  0
   -5.8798    8.0668    4.0299 H   0  0  0  0  0  0  0  0  0  0  0  0
   -5.6562   10.7297    1.4819 H   0  0  0  0  0  0  0  0  0  0  0  0
   -3.4923   11.6062    3.2572 H   0  0  0  0  0  0  0  0  0  0  0  0
   -5.0855   11.7713    3.5343 H   0  0  0  0  0  0  0  0  0  0  0  0
   -2.6202   10.6708    1.1217 H   0  0  0  0  0  0  0  0  0  0  0  0
   -3.9658   12.4908    0.5848 H   0  0  0  0  0  0  0  0  0  0  0  0
   -4.8202    9.3242   -0.5373 H   0  0  0  0  0  0  0  0  0  0  0  0
   -2.9001   10.3101   -1.5165 H   0  0  0  0  0  0  0  0  0  0  0  0
    6.5169    6.3659    6.2948 H   0  0  0  0  0  0  0  0  0  0  0  0
  1  2  1  0  0  0  0
  1 36  1  0  0  0  0
  1 37  1  0  0  0  0
  1 38  1  0  0  0  0
  2  3  2  0  0  0  0
  2 34  1  0  0  0  0
  3  4  1  0  0  0  0
  3 39  1  0  0  0  0
  4  5  1  0  0  0  0
  4 31  1  0  0  0  0
  5  6  1  0  0  0  0
  5 30  1  0  0  0  0
  5 40  1  6  0  0  0
  6  7  1  0  0  0  0
  6 41  1  0  0  0  0
  6 42  1  0  0  0  0
  7  8  1  0  0  0  0
  7  9  1  0  0  0  0
  7 43  1  6  0  0  0
  8 44  1  0  0  0  0
  9 10  1  0  0  0  0
  9 30  1  0  0  0  0
  9 45  1  6  0  0  0
 10 11  1  0  0  0  0
 10 46  1  0  0  0  0
 10 47  1  0  0  0  0
 11 12  1  0  0  0  0
 12 13  2  0  0  0  0
 12 14  1  0  0  0  0
 12 15  1  0  0  0  0
 14 48  1  0  0  0  0
 15 16  1  0  0  0  0
 16 17  2  0  0  0  0
 16 18  1  0  0  0  0
 16 19  1  0  0  0  0
 18 49  1  0  0  0  0
 19 20  1  0  0  0  0
 20 21  1  0  0  0  0
 20 28  1  0  0  0  0
 20 50  1  0  0  0  0
 21 22  1  0  0  0  0
 22 23  1  0  0  0  0
 22 24  1  0  0  0  0
 22 51  1  1  0  0  0
 23 52  1  0  0  0  0
 23 53  1  0  0  0  0
 23 54  1  0  0  0  0
 24 26  1  0  0  0  0
 24 25  1  0  0  0  0
 24 55  1  6  0  0  0
 25 56  1  0  0  0  0
 25 57  1  0  0  0  0
 26 27  1  0  0  0  0
 26 28  1  0  0  0  0
 26 58  1  1  0  0  0
 27 59  1  0  0  0  0
 28 29  1  0  0  0  0
 28 60  1  6  0  0  0
 29 61  1  0  0  0  0
 31 32  2  0  0  0  0
 31 33  1  0  0  0  0
 33 34  1  0  0  0  0
 33 62  1  0  0  0  0
 34 35  2  0  0  0  0
M  END
$$$$
