CHEBI:15715
 OpenBabel04242413093D

 84 86  0  0  1  0  0  0  0  0999 V2000
  -10.8606   -1.2024   -5.9521 C   0  0  0  0  0  0  0  0  0  0  0  0
  -10.3420   -1.7723   -4.7001 N   0  0  0  0  0  0  0  0  0  0  0  0
   -9.5840   -3.0409   -4.9848 C   0  0  2  0  0  0  0  0  0  0  0  0
  -10.5718   -4.2483   -5.1058 C   0  0  2  0  0  0  0  0  0  0  0  0
  -11.3697   -4.2425   -3.9143 O   0  0  0  0  0  0  0  0  0  0  0  0
  -12.3440   -5.2963   -3.7978 C   0  0  1  0  0  0  0  0  0  0  0  0
  -12.8270   -5.2788   -2.3313 C   0  0  2  0  0  0  0  0  0  0  0  0
  -13.3645   -6.5412   -1.9331 O   0  0  0  0  0  0  0  0  0  0  0  0
  -13.8013   -6.5633   -0.5497 C   0  0  1  0  0  0  0  0  0  0  0  0
  -15.3153   -6.2807   -0.4819 C   0  0  2  0  0  0  0  0  0  0  0  0
  -15.6903   -5.8221    0.8248 O   0  0  0  0  0  0  0  0  0  0  0  0
  -16.1964   -7.4847   -0.8581 C   0  0  1  0  0  0  0  0  0  0  0  0
  -17.2501   -6.9929   -1.7153 O   0  0  0  0  0  0  0  0  0  0  0  0
  -15.4285   -8.6265   -1.5501 C   0  0  2  0  0  0  0  0  0  0  0  0
  -16.3583   -9.7493   -1.7642 N   0  0  0  0  0  0  0  0  0  0  0  0
  -16.3011  -10.6436   -2.7691 C   0  0  0  0  0  0  0  0  0  0  0  0
  -17.3936  -11.1319   -3.2336 N   0  0  0  0  0  0  0  0  0  0  0  0
  -15.0833  -10.9824   -3.2152 N   0  0  0  0  0  0  0  0  0  0  0  0
  -14.2306   -9.0953   -0.6871 C   0  0  1  0  0  0  0  0  0  0  0  0
  -13.3151   -9.8773   -1.4890 O   0  0  0  0  0  0  0  0  0  0  0  0
  -13.4393   -7.9570    0.0184 C   0  0  2  0  0  0  0  0  0  0  0  0
  -13.6280   -8.0189    1.4695 N   0  0  0  0  0  0  0  0  0  0  0  0
  -12.8272   -7.4362    2.3868 C   0  0  0  0  0  0  0  0  0  0  0  0
  -11.7860   -6.7122    2.2157 N   0  0  0  0  0  0  0  0  0  0  0  0
  -13.2550   -7.7016    3.6344 N   0  0  0  0  0  0  0  0  0  0  0  0
  -13.8306   -4.2618   -2.2755 O   0  0  0  0  0  0  0  0  0  0  0  0
  -14.4997   -4.2193   -3.5480 C   0  0  1  0  0  0  0  0  0  0  0  0
  -14.7284   -2.7567   -3.8990 C   0  0  0  0  0  0  0  0  0  0  0  0
  -13.6564   -5.0281   -4.5501 C   0  0  1  0  0  0  0  0  0  0  0  0
  -13.4671   -4.3618   -5.7992 O   0  0  0  0  0  0  0  0  0  0  0  0
  -14.3640   -6.3504   -4.8592 C   0  0  0  0  0  0  0  0  0  0  0  0
  -13.8401   -7.4588   -4.8047 O   0  0  0  0  0  0  0  0  0  0  0  0
   -9.8795   -5.4667   -5.3284 O   0  0  0  0  0  0  0  0  0  0  0  0
   -8.9729   -5.8287   -4.2932 C   0  0  1  0  0  0  0  0  0  0  0  0
   -8.2789   -7.1382   -4.7101 C   0  0  0  0  0  0  0  0  0  0  0  0
   -7.5060   -7.6962   -3.6545 O   0  0  0  0  0  0  0  0  0  0  0  0
   -7.9381   -4.7294   -4.0266 C   0  0  2  0  0  0  0  0  0  0  0  0
   -7.1352   -5.1046   -2.8931 O   0  0  0  0  0  0  0  0  0  0  0  0
   -8.5856   -3.3418   -3.8286 C   0  0  1  0  0  0  0  0  0  0  0  0
   -7.4857   -2.4398   -3.6860 O   0  0  0  0  0  0  0  0  0  0  0  0
   -7.5448   -0.8940   -4.0626 P   0  0  0  0  0  0  0  0  0  0  0  0
   -7.5649   -0.5483   -5.5105 O   0  0  0  0  0  0  0  0  0  0  0  0
   -8.7639   -0.3176   -3.2092 O   0  0  0  0  0  0  0  0  0  0  0  0
   -6.3115   -0.2961   -3.2435 O   0  0  0  0  0  0  0  0  0  0  0  0
  -11.3786   -0.2647   -5.7296 H   0  0  0  0  0  0  0  0  0  0  0  0
  -11.5761   -1.8708   -6.4401 H   0  0  0  0  0  0  0  0  0  0  0  0
  -10.0512   -0.9732   -6.6519 H   0  0  0  0  0  0  0  0  0  0  0  0
  -11.1583   -2.0549   -4.1358 H   0  0  0  0  0  0  0  0  0  0  0  0
   -8.9976   -2.9379   -5.9071 H   0  0  0  0  0  0  0  0  0  0  0  0
  -11.2032   -4.0849   -5.9798 H   0  0  0  0  0  0  0  0  0  0  0  0
  -11.8771   -6.2563   -4.0372 H   0  0  0  0  0  0  0  0  0  0  0  0
  -12.0080   -5.0030   -1.6563 H   0  0  0  0  0  0  0  0  0  0  0  0
  -13.2630   -5.7951    0.0190 H   0  0  0  0  0  0  0  0  0  0  0  0
  -15.5557   -5.4492   -1.1477 H   0  0  0  0  0  0  0  0  0  0  0  0
  -16.6013   -5.4822    0.7508 H   0  0  0  0  0  0  0  0  0  0  0  0
  -16.7009   -7.8711    0.0366 H   0  0  0  0  0  0  0  0  0  0  0  0
  -17.6234   -7.7543   -2.1992 H   0  0  0  0  0  0  0  0  0  0  0  0
  -15.0948   -8.2893   -2.5379 H   0  0  0  0  0  0  0  0  0  0  0  0
  -17.3201   -9.6091   -1.4722 H   0  0  0  0  0  0  0  0  0  0  0  0
  -17.1664  -11.7769   -3.9939 H   0  0  0  0  0  0  0  0  0  0  0  0
  -14.3638  -10.9453   -2.4905 H   0  0  0  0  0  0  0  0  0  0  0  0
  -15.0260  -11.8552   -3.7220 H   0  0  0  0  0  0  0  0  0  0  0  0
  -14.6039   -9.8018    0.0647 H   0  0  0  0  0  0  0  0  0  0  0  0
  -13.0094   -9.3044   -2.2221 H   0  0  0  0  0  0  0  0  0  0  0  0
  -12.3740   -8.1357   -0.1823 H   0  0  0  0  0  0  0  0  0  0  0  0
  -13.9676   -8.9104    1.8204 H   0  0  0  0  0  0  0  0  0  0  0  0
  -11.5724   -6.6234    1.2261 H   0  0  0  0  0  0  0  0  0  0  0  0
  -14.2437   -7.5099    3.7453 H   0  0  0  0  0  0  0  0  0  0  0  0
  -12.7192   -7.1470    4.2961 H   0  0  0  0  0  0  0  0  0  0  0  0
  -15.4808   -4.6856   -3.3984 H   0  0  0  0  0  0  0  0  0  0  0  0
  -15.3008   -2.6495   -4.8248 H   0  0  0  0  0  0  0  0  0  0  0  0
  -13.7790   -2.2209   -3.9998 H   0  0  0  0  0  0  0  0  0  0  0  0
  -15.2840   -2.2594   -3.0957 H   0  0  0  0  0  0  0  0  0  0  0  0
  -14.3321   -4.1809   -6.2074 H   0  0  0  0  0  0  0  0  0  0  0  0
  -15.4113   -6.2538   -5.1963 H   0  0  0  0  0  0  0  0  0  0  0  0
   -9.5273   -6.0326   -3.3682 H   0  0  0  0  0  0  0  0  0  0  0  0
   -9.0244   -7.8807   -5.0145 H   0  0  0  0  0  0  0  0  0  0  0  0
   -7.6287   -6.9768   -5.5781 H   0  0  0  0  0  0  0  0  0  0  0  0
   -6.9278   -6.9801   -3.3153 H   0  0  0  0  0  0  0  0  0  0  0  0
   -7.2479   -4.6621   -4.8775 H   0  0  0  0  0  0  0  0  0  0  0  0
   -7.5494   -4.7424   -2.0887 H   0  0  0  0  0  0  0  0  0  0  0  0
   -9.1126   -3.3254   -2.8662 H   0  0  0  0  0  0  0  0  0  0  0  0
   -9.5797   -0.5641   -3.7090 H   0  0  0  0  0  0  0  0  0  0  0  0
   -6.4308   -0.4433   -2.2902 H   0  0  0  0  0  0  0  0  0  0  0  0
  1  2  1  0  0  0  0
  1 45  1  0  0  0  0
  1 46  1  0  0  0  0
  1 47  1  0  0  0  0
  2 48  1  0  0  0  0
  3  4  1  0  0  0  0
  3 39  1  0  0  0  0
  3  2  1  0  0  0  0
  3 49  1  6  0  0  0
  4 33  1  0  0  0  0
  4  5  1  0  0  0  0
  4 50  1  6  0  0  0
  6  7  1  0  0  0  0
  6 29  1  0  0  0  0
  6  5  1  0  0  0  0
  6 51  1  6  0  0  0
  7 26  1  0  0  0  0
  7  8  1  0  0  0  0
  7 52  1  1  0  0  0
  9 10  1  0  0  0  0
  9 21  1  0  0  0  0
  9  8  1  0  0  0  0
  9 53  1  1  0  0  0
 10 12  1  0  0  0  0
 10 11  1  0  0  0  0
 10 54  1  6  0  0  0
 11 55  1  0  0  0  0
 12 13  1  0  0  0  0
 12 14  1  0  0  0  0
 12 56  1  1  0  0  0
 13 57  1  0  0  0  0
 14 19  1  0  0  0  0
 14 15  1  0  0  0  0
 14 58  1  6  0  0  0
 15 16  1  0  0  0  0
 15 59  1  0  0  0  0
 16 17  2  0  0  0  0
 16 18  1  0  0  0  0
 17 60  1  0  0  0  0
 18 61  1  0  0  0  0
 18 62  1  0  0  0  0
 19 20  1  0  0  0  0
 19 21  1  0  0  0  0
 19 63  1  1  0  0  0
 20 64  1  0  0  0  0
 21 22  1  0  0  0  0
 21 65  1  6  0  0  0
 22 23  1  0  0  0  0
 22 66  1  0  0  0  0
 23 24  2  0  0  0  0
 23 25  1  0  0  0  0
 24 67  1  0  0  0  0
 25 68  1  0  0  0  0
 25 69  1  0  0  0  0
 26 27  1  0  0  0  0
 27 28  1  0  0  0  0
 27 29  1  0  0  0  0
 27 70  1  1  0  0  0
 28 71  1  0  0  0  0
 28 72  1  0  0  0  0
 28 73  1  0  0  0  0
 29 30  1  6  0  0  0
 29 31  1  0  0  0  0
 30 74  1  0  0  0  0
 31 32  2  0  0  0  0
 31 75  1  0  0  0  0
 33 34  1  0  0  0  0
 34 37  1  0  0  0  0
 34 35  1  0  0  0  0
 34 76  1  1  0  0  0
 35 36  1  0  0  0  0
 35 77  1  0  0  0  0
 35 78  1  0  0  0  0
 36 79  1  0  0  0  0
 37 38  1  0  0  0  0
 37 39  1  0  0  0  0
 37 80  1  6  0  0  0
 38 81  1  0  0  0  0
 39 40  1  0  0  0  0
 39 82  1  1  0  0  0
 40 41  1  0  0  0  0
 41 42  2  0  0  0  0
 41 43  1  0  0  0  0
 41 44  1  0  0  0  0
 43 83  1  0  0  0  0
 44 84  1  0  0  0  0
M  END
$$$$
