CHEBI:16699
 OpenBabel04242415053D

 17 16  0  0  1  0  0  0  0  0999 V2000
    2.7439    2.8828    3.9205 O   0  0  0  0  0  0  0  0  0  0  0  0
    3.5143    3.7475    4.4542 C   0  0  0  0  0  0  0  0  0  0  0  0
    3.1739    4.7020    5.2147 O   0  5  0  0  0  0  0  0  0  0  0  0
    5.0019    3.5501    4.1445 C   0  0  0  0  0  0  0  0  0  0  0  0
    5.8136    4.3219    4.6593 O   0  0  0  0  0  0  0  0  0  0  0  0
    5.4264    2.4502    3.1988 C   0  0  0  0  0  0  0  0  0  0  0  0
    5.0408    1.0361    3.6289 C   0  0  2  0  0  0  0  0  0  0  0  0
    3.7257    0.6765    3.1773 O   0  0  0  0  0  0  0  0  0  0  0  0
    5.1424    0.7530    5.1317 C   0  0  0  0  0  0  0  0  0  0  0  0
    4.8338   -0.6282    5.3573 O   0  0  0  0  0  0  0  0  0  0  0  0
    6.5203    2.5062    3.1314 H   0  0  0  0  0  0  0  0  0  0  0  0
    5.0252    2.6839    2.2063 H   0  0  0  0  0  0  0  0  0  0  0  0
    5.7028    0.3348    3.1064 H   0  0  0  0  0  0  0  0  0  0  0  0
    3.1283    1.4373    3.4226 H   0  0  0  0  0  0  0  0  0  0  0  0
    4.4199    1.3342    5.7111 H   0  0  0  0  0  0  0  0  0  0  0  0
    6.1495    0.9479    5.5105 H   0  0  0  0  0  0  0  0  0  0  0  0
    4.0312   -0.7770    4.8148 H   0  0  0  0  0  0  0  0  0  0  0  0
  1  2  2  0  0  0  0
  2  3  1  0  0  0  0
  2  4  1  0  0  0  0
  4  5  2  0  0  0  0
  4  6  1  0  0  0  0
  6 11  1  0  0  0  0
  6 12  1  0  0  0  0
  7  9  1  0  0  0  0
  7  8  1  0  0  0  0
  7  6  1  0  0  0  0
  7 13  1  6  0  0  0
  8 14  1  0  0  0  0
  9 10  1  0  0  0  0
  9 15  1  0  0  0  0
  9 16  1  0  0  0  0
 10 17  1  0  0  0  0
M  CHG  1   3  -1
M  END
$$$$
