CHEBI:16104
 OpenBabel04242413503D

 22 22  0  0  0  0  0  0  0  0999 V2000
    7.3317    1.6015   -0.5048 O   0  0  0  0  0  0  0  0  0  0  0  0
    7.2406    2.6016    0.1913 C   0  0  0  0  0  0  0  0  0  0  0  0
    8.3225    3.2348    0.6967 O   0  0  0  0  0  0  0  0  0  0  0  0
    5.9309    3.2306    0.5891 C   0  0  0  0  0  0  0  0  0  0  0  0
    5.3743    2.6042    1.8611 C   0  0  0  0  0  0  0  0  0  0  0  0
    6.2030    2.9142    3.0862 C   0  0  0  0  0  0  0  0  0  0  0  0
    7.0521    1.9320    3.6171 C   0  0  0  0  0  0  0  0  0  0  0  0
    7.8417    2.2043    4.7351 C   0  0  0  0  0  0  0  0  0  0  0  0
    7.7909    3.4599    5.3371 C   0  0  0  0  0  0  0  0  0  0  0  0
    6.9536    4.4479    4.8201 C   0  0  0  0  0  0  0  0  0  0  0  0
    6.1708    4.1711    3.7000 C   0  0  0  0  0  0  0  0  0  0  0  0
    5.3680    5.1402    3.1695 O   0  0  0  0  0  0  0  0  0  0  0  0
    8.0894    3.9569    1.3139 H   0  0  0  0  0  0  0  0  0  0  0  0
    5.2311    3.0697   -0.2399 H   0  0  0  0  0  0  0  0  0  0  0  0
    6.0532    4.3162    0.6698 H   0  0  0  0  0  0  0  0  0  0  0  0
    5.2909    1.5167    1.7371 H   0  0  0  0  0  0  0  0  0  0  0  0
    4.3504    2.9616    2.0283 H   0  0  0  0  0  0  0  0  0  0  0  0
    7.1110    0.9468    3.1568 H   0  0  0  0  0  0  0  0  0  0  0  0
    8.4981    1.4344    5.1340 H   0  0  0  0  0  0  0  0  0  0  0  0
    8.4070    3.6675    6.2085 H   0  0  0  0  0  0  0  0  0  0  0  0
    6.9314    5.4228    5.2973 H   0  0  0  0  0  0  0  0  0  0  0  0
    5.3197    5.8807    3.7981 H   0  0  0  0  0  0  0  0  0  0  0  0
  1  2  2  0  0  0  0
  2  3  1  0  0  0  0
  2  4  1  0  0  0  0
  3 13  1  0  0  0  0
  4  5  1  0  0  0  0
  4 14  1  0  0  0  0
  4 15  1  0  0  0  0
  5  6  1  0  0  0  0
  5 16  1  0  0  0  0
  5 17  1  0  0  0  0
  6  7  1  0  0  0  0
  6 11  2  0  0  0  0
  7  8  2  0  0  0  0
  7 18  1  0  0  0  0
  8  9  1  0  0  0  0
  8 19  1  0  0  0  0
  9 10  2  0  0  0  0
  9 20  1  0  0  0  0
 10 11  1  0  0  0  0
 10 21  1  0  0  0  0
 11 12  1  0  0  0  0
 12 22  1  0  0  0  0
M  END
$$$$
