CHEBI:15811
 OpenBabel04242413183D

 19 18  0  0  1  0  0  0  0  0999 V2000
    2.8250   -0.2694    3.1950 N   0  0  0  0  0  0  0  0  0  0  0  0
    2.6621   -0.1292    1.7095 C   0  0  1  0  0  0  0  0  0  0  0  0
    3.2051   -1.3443    0.9540 C   0  0  0  0  0  0  0  0  0  0  0  0
    2.7096   -2.5334    1.5619 O   0  0  0  0  0  0  0  0  0  0  0  0
    2.9949   -3.9305    0.8367 P   0  0  0  0  0  0  0  0  0  0  0  0
    2.4681   -5.1445    1.5156 O   0  0  0  0  0  0  0  0  0  0  0  0
    2.4531   -3.7464   -0.6504 O   0  0  0  0  0  0  0  0  0  0  0  0
    4.5763   -3.9641    0.6266 O   0  0  0  0  0  0  0  0  0  0  0  0
    1.1701    0.0610    1.4017 C   0  0  0  0  0  0  0  0  0  0  0  0
    0.6578   -0.0186    0.2966 O   0  0  0  0  0  0  0  0  0  0  0  0
    0.4737    0.3727    2.5276 O   0  0  0  0  0  0  0  0  0  0  0  0
    3.8252   -0.1878    3.4017 H   0  0  0  0  0  0  0  0  0  0  0  0
    2.6284   -1.2602    3.4057 H   0  0  0  0  0  0  0  0  0  0  0  0
    3.1685    0.7871    1.3873 H   0  0  0  0  0  0  0  0  0  0  0  0
    4.2986   -1.3565    1.0151 H   0  0  0  0  0  0  0  0  0  0  0  0
    2.9147   -1.3129   -0.1009 H   0  0  0  0  0  0  0  0  0  0  0  0
    1.4924   -3.9093   -0.7034 H   0  0  0  0  0  0  0  0  0  0  0  0
    4.8697   -4.8692    0.4152 H   0  0  0  0  0  0  0  0  0  0  0  0
    1.1357    0.3527    3.2655 H   0  0  0  0  0  0  0  0  0  0  0  0
  1  2  1  0  0  0  0
  1 12  1  0  0  0  0
  1 13  1  0  0  0  0
  2  3  1  0  0  0  0
  2  9  1  0  0  0  0
  2 14  1  6  0  0  0
  3  4  1  0  0  0  0
  3 15  1  0  0  0  0
  3 16  1  0  0  0  0
  4  5  1  0  0  0  0
  5  6  2  0  0  0  0
  5  7  1  0  0  0  0
  5  8  1  0  0  0  0
  7 17  1  0  0  0  0
  8 18  1  0  0  0  0
  9 10  2  0  0  0  0
  9 11  1  0  0  0  0
 11 19  1  0  0  0  0
M  END
$$$$
