CHEBI:16967
 OpenBabel04242415373D

 15 14  0  0  0  0  0  0  0  0999 V2000
    4.2659    1.5313    0.5582 O   0  0  0  0  0  0  0  0  0  0  0  0
    5.4983    1.8262    0.6163 C   0  0  0  0  0  0  0  0  0  0  0  0
    6.4651    1.1328    1.0267 O   0  5  0  0  0  0  0  0  0  0  0  0
    5.8007    3.2674    0.1836 C   0  0  0  0  0  0  0  0  0  0  0  0
    6.9625    3.8529   -0.1553 C   0  0  0  0  0  0  0  0  0  0  0  0
    8.3304    3.2177   -0.2652 C   0  0  0  0  0  0  0  0  0  0  0  0
    9.1963    3.9392   -1.2973 C   0  0  0  0  0  0  0  0  0  0  0  0
    8.7868    4.7843   -2.0993 O   0  0  0  0  0  0  0  0  0  0  0  0
   10.6991    3.6072   -1.3470 C   0  0  0  0  0  0  0  0  0  0  0  0
   11.1216    2.7597   -0.4951 O   0  0  0  0  0  0  0  0  0  0  0  0
   11.4191    4.2073   -2.2133 O   0  5  0  0  0  0  0  0  0  0  0  0
    4.9043    3.8860    0.1651 H   0  0  0  0  0  0  0  0  0  0  0  0
    6.9242    4.9119   -0.4042 H   0  0  0  0  0  0  0  0  0  0  0  0
    8.2625    2.1683   -0.5653 H   0  0  0  0  0  0  0  0  0  0  0  0
    8.8260    3.2966    0.7080 H   0  0  0  0  0  0  0  0  0  0  0  0
  1  2  2  0  0  0  0
  2  3  1  0  0  0  0
  2  4  1  0  0  0  0
  4  5  2  0  0  0  0
  4 12  1  0  0  0  0
  5  6  1  0  0  0  0
  5 13  1  0  0  0  0
  6  7  1  0  0  0  0
  6 14  1  0  0  0  0
  6 15  1  0  0  0  0
  7  8  2  0  0  0  0
  7  9  1  0  0  0  0
  9 10  2  0  0  0  0
  9 11  1  0  0  0  0
M  CHG  2   3  -1  11  -1
M  END
$$$$
