CHEBI:17458
 OpenBabel04242416373D

 24 24  0  0  0  0  0  0  0  0999 V2000
    1.4671   -0.8071   -0.9589 C   0  0  0  0  0  0  0  0  0  0  0  0
    2.8965   -1.0871   -0.9181 N   0  0  0  0  0  0  0  0  0  0  0  0
    3.1677   -2.3208   -0.1714 C   0  0  0  0  0  0  0  0  0  0  0  0
    4.6755   -2.6023   -0.1334 C   0  0  0  0  0  0  0  0  0  0  0  0
    4.9893   -3.8775    0.6118 C   0  0  0  0  0  0  0  0  0  0  0  0
    5.0488   -5.1014   -0.0708 C   0  0  0  0  0  0  0  0  0  0  0  0
    5.3242   -6.2852    0.6174 C   0  0  0  0  0  0  0  0  0  0  0  0
    5.5350   -6.2440    1.9915 C   0  0  0  0  0  0  0  0  0  0  0  0
    5.8078   -7.3751    2.7026 O   0  0  0  0  0  0  0  0  0  0  0  0
    5.4725   -5.0420    2.6856 C   0  0  0  0  0  0  0  0  0  0  0  0
    5.1981   -3.8590    1.9978 C   0  0  0  0  0  0  0  0  0  0  0  0
    1.2918    0.1081   -1.5328 H   0  0  0  0  0  0  0  0  0  0  0  0
    1.0586   -0.6580    0.0459 H   0  0  0  0  0  0  0  0  0  0  0  0
    0.9185   -1.6155   -1.4530 H   0  0  0  0  0  0  0  0  0  0  0  0
    3.3774   -0.3066   -0.4711 H   0  0  0  0  0  0  0  0  0  0  0  0
    2.6513   -3.1632   -0.6485 H   0  0  0  0  0  0  0  0  0  0  0  0
    2.7827   -2.2332    0.8524 H   0  0  0  0  0  0  0  0  0  0  0  0
    5.2070   -1.7671    0.3416 H   0  0  0  0  0  0  0  0  0  0  0  0
    5.0748   -2.6716   -1.1538 H   0  0  0  0  0  0  0  0  0  0  0  0
    4.8816   -5.1369   -1.1454 H   0  0  0  0  0  0  0  0  0  0  0  0
    5.3686   -7.2199    0.0679 H   0  0  0  0  0  0  0  0  0  0  0  0
    5.8335   -8.1262    2.0876 H   0  0  0  0  0  0  0  0  0  0  0  0
    5.6377   -5.0257    3.7589 H   0  0  0  0  0  0  0  0  0  0  0  0
    5.1507   -2.9238    2.5507 H   0  0  0  0  0  0  0  0  0  0  0  0
  1  2  1  0  0  0  0
  1 12  1  0  0  0  0
  1 13  1  0  0  0  0
  1 14  1  0  0  0  0
  2  3  1  0  0  0  0
  2 15  1  0  0  0  0
  3  4  1  0  0  0  0
  3 16  1  0  0  0  0
  3 17  1  0  0  0  0
  4  5  1  0  0  0  0
  4 18  1  0  0  0  0
  4 19  1  0  0  0  0
  5  6  1  0  0  0  0
  5 11  2  0  0  0  0
  6  7  2  0  0  0  0
  6 20  1  0  0  0  0
  7  8  1  0  0  0  0
  7 21  1  0  0  0  0
  8  9  1  0  0  0  0
  8 10  2  0  0  0  0
  9 22  1  0  0  0  0
 10 11  1  0  0  0  0
 10 23  1  0  0  0  0
 11 24  1  0  0  0  0
M  END
$$$$
