CHEBI:15677
 OpenBabel04242413033D

 17 17  0  0  1  0  0  0  0  0999 V2000
    0.9834    0.0213    0.8071 N   0  0  0  0  0  0  0  0  0  0  0  0
    2.1787   -0.3492    0.2856 C   0  0  0  0  0  0  0  0  0  0  0  0
    2.3608   -0.4396   -0.9175 O   0  0  0  0  0  0  0  0  0  0  0  0
    3.0988   -0.6250    1.2483 N   0  0  0  0  0  0  0  0  0  0  0  0
    4.4502   -0.8807    0.8554 C   0  0  2  0  0  0  0  0  0  0  0  0
    5.1033   -1.7110    1.8171 N   0  0  0  0  0  0  0  0  0  0  0  0
    6.2909   -1.1751    2.2450 C   0  0  0  0  0  0  0  0  0  0  0  0
    7.0687   -1.7218    3.0053 O   0  0  0  0  0  0  0  0  0  0  0  0
    6.4396    0.0532    1.6993 N   0  0  0  0  0  0  0  0  0  0  0  0
    5.3676    0.3645    0.9170 C   0  0  0  0  0  0  0  0  0  0  0  0
    5.1775    1.4554    0.4021 O   0  0  0  0  0  0  0  0  0  0  0  0
    0.2552    0.1166    0.1088 H   0  0  0  0  0  0  0  0  0  0  0  0
    0.6906   -0.4372    1.6577 H   0  0  0  0  0  0  0  0  0  0  0  0
    2.9749   -0.1061    2.1039 H   0  0  0  0  0  0  0  0  0  0  0  0
    4.5264   -1.3483   -0.1314 H   0  0  0  0  0  0  0  0  0  0  0  0
    4.8450   -2.6639    2.0271 H   0  0  0  0  0  0  0  0  0  0  0  0
    7.1965    0.6792    1.9138 H   0  0  0  0  0  0  0  0  0  0  0  0
  1  2  1  0  0  0  0
  1 12  1  0  0  0  0
  1 13  1  0  0  0  0
  2  3  2  0  0  0  0
  2  4  1  0  0  0  0
  4  5  1  0  0  0  0
  4 14  1  0  0  0  0
  5  6  1  0  0  0  0
  5 10  1  0  0  0  0
  5 15  1  6  0  0  0
  6  7  1  0  0  0  0
  6 16  1  0  0  0  0
  7  8  2  0  0  0  0
  7  9  1  0  0  0  0
  9 10  1  0  0  0  0
  9 17  1  0  0  0  0
 10 11  2  0  0  0  0
M  END
$$$$
