CHEBI:17522
 OpenBabel04242416443D

 14 13  0  0  0  0  0  0  0  0999 V2000
    0.6503   -0.0575   -0.2227 O   0  0  0  0  0  0  0  0  0  0  0  0
    1.7123    0.8370   -0.5715 C   0  0  0  0  0  0  0  0  0  0  0  0
    2.7382    0.8235    0.5640 C   0  0  0  0  0  0  0  0  0  0  0  0
    3.2279   -0.5208    0.7145 O   0  0  0  0  0  0  0  0  0  0  0  0
    3.9262    1.7408    0.2844 C   0  0  0  0  0  0  0  0  0  0  0  0
    4.6272    1.2969   -0.8768 O   0  0  0  0  0  0  0  0  0  0  0  0
    0.0197   -0.0419   -0.9650 H   0  0  0  0  0  0  0  0  0  0  0  0
    1.2960    1.8378   -0.7194 H   0  0  0  0  0  0  0  0  0  0  0  0
    2.1479    0.4746   -1.5081 H   0  0  0  0  0  0  0  0  0  0  0  0
    2.2586    1.1002    1.5093 H   0  0  0  0  0  0  0  0  0  0  0  0
    2.4197   -1.0737    0.7229 H   0  0  0  0  0  0  0  0  0  0  0  0
    4.6342    1.7170    1.1192 H   0  0  0  0  0  0  0  0  0  0  0  0
    3.6056    2.7744    0.1249 H   0  0  0  0  0  0  0  0  0  0  0  0
    4.7880    0.3443   -0.7195 H   0  0  0  0  0  0  0  0  0  0  0  0
  1  2  1  0  0  0  0
  1  7  1  0  0  0  0
  2  3  1  0  0  0  0
  2  8  1  0  0  0  0
  2  9  1  0  0  0  0
  3  4  1  0  0  0  0
  3  5  1  0  0  0  0
  3 10  1  0  0  0  0
  4 11  1  0  0  0  0
  5  6  1  0  0  0  0
  5 12  1  0  0  0  0
  5 13  1  0  0  0  0
  6 14  1  0  0  0  0
M  END
$$$$
