CHEBI:4075
 OpenBabel04242410573D

 15 14  0  0  1  0  0  0  0  0999 V2000
    2.7457   -0.7807   -1.2995 C   0  0  0  0  0  0  0  0  0  0  0  0
    2.4741    0.0626   -0.0630 C   0  0  2  0  0  0  0  0  0  0  0  0
    1.0115    0.1249    0.1782 N   0  0  0  0  0  0  0  0  0  0  0  0
    3.0841    1.7771   -0.2565 P   0  0  0  0  0  0  0  0  0  0  0  0
    2.4446    2.2131    1.0702 O   0  0  0  0  0  0  0  0  0  0  0  0
    4.6035    1.3336    0.1602 O   0  0  0  0  0  0  0  0  0  0  0  0
    3.6608    3.3979   -0.4393 O   0  0  0  0  0  0  0  0  0  0  0  0
    3.8226   -0.8492   -1.4841 H   0  0  0  0  0  0  0  0  0  0  0  0
    2.2913   -0.3333   -2.1903 H   0  0  0  0  0  0  0  0  0  0  0  0
    2.3541   -1.7966   -1.1835 H   0  0  0  0  0  0  0  0  0  0  0  0
    2.9371   -0.4057    0.8132 H   0  0  0  0  0  0  0  0  0  0  0  0
    0.5423    0.5711   -0.6083 H   0  0  0  0  0  0  0  0  0  0  0  0
    0.8875    0.7777    0.9650 H   0  0  0  0  0  0  0  0  0  0  0  0
    4.7763    1.5443    1.0979 H   0  0  0  0  0  0  0  0  0  0  0  0
    3.5595    3.8030    0.4456 H   0  0  0  0  0  0  0  0  0  0  0  0
  1  8  1  0  0  0  0
  1  9  1  0  0  0  0
  1 10  1  0  0  0  0
  2  4  1  0  0  0  0
  2  3  1  0  0  0  0
  2  1  1  0  0  0  0
  2 11  1  1  0  0  0
  3 12  1  0  0  0  0
  3 13  1  0  0  0  0
  4  5  2  0  0  0  0
  4  6  1  0  0  0  0
  4  7  1  0  0  0  0
  6 14  1  0  0  0  0
  7 15  1  0  0  0  0
M  END
$$$$
