CHEBI:17159
 OpenBabel04242415563D

 28 27  0  0  1  0  0  0  0  0999 V2000
    3.7806    0.3548   -5.4337 C   0  0  0  0  0  0  0  0  0  0  0  0
    3.5837   -1.1514   -5.2599 N   0  3  0  0  0  0  0  0  0  0  0  0
    2.7107   -1.6581   -6.4011 C   0  0  0  0  0  0  0  0  0  0  0  0
    4.9480   -1.8230   -5.3158 C   0  0  0  0  0  0  0  0  0  0  0  0
    2.9051   -1.3754   -3.8791 C   0  0  0  0  0  0  0  0  0  0  0  0
    2.6313   -2.8602   -3.5159 C   0  0  2  0  0  0  0  0  0  0  0  0
    1.6246   -3.3857   -4.3914 O   0  0  0  0  0  0  0  0  0  0  0  0
    2.1303   -2.9914   -2.0720 C   0  0  0  0  0  0  0  0  0  0  0  0
    3.2243   -2.6679   -1.0842 C   0  0  0  0  0  0  0  0  0  0  0  0
    2.8467   -2.7023    0.2211 N   0  0  0  0  0  0  0  0  0  0  0  0
    4.3632   -2.3698   -1.4228 O   0  0  0  0  0  0  0  0  0  0  0  0
    4.2575    0.5361   -6.4017 H   0  0  0  0  0  0  0  0  0  0  0  0
    4.4205    0.7167   -4.6232 H   0  0  0  0  0  0  0  0  0  0  0  0
    2.8001    0.8386   -5.3954 H   0  0  0  0  0  0  0  0  0  0  0  0
    3.1271   -1.2846   -7.3421 H   0  0  0  0  0  0  0  0  0  0  0  0
    1.6957   -1.2757   -6.2612 H   0  0  0  0  0  0  0  0  0  0  0  0
    2.7317   -2.7498   -6.4145 H   0  0  0  0  0  0  0  0  0  0  0  0
    5.4428   -1.5199   -6.2438 H   0  0  0  0  0  0  0  0  0  0  0  0
    4.8138   -2.9073   -5.3128 H   0  0  0  0  0  0  0  0  0  0  0  0
    5.5308   -1.5005   -4.4485 H   0  0  0  0  0  0  0  0  0  0  0  0
    1.9568   -0.8254   -3.9223 H   0  0  0  0  0  0  0  0  0  0  0  0
    3.5551   -0.8858   -3.1486 H   0  0  0  0  0  0  0  0  0  0  0  0
    3.5323   -3.4667   -3.6490 H   0  0  0  0  0  0  0  0  0  0  0  0
    1.4778   -4.3231   -4.1588 H   0  0  0  0  0  0  0  0  0  0  0  0
    1.7910   -4.0177   -1.8870 H   0  0  0  0  0  0  0  0  0  0  0  0
    1.2714   -2.3319   -1.9018 H   0  0  0  0  0  0  0  0  0  0  0  0
    1.9437   -3.0325    0.5382 H   0  0  0  0  0  0  0  0  0  0  0  0
    3.5499   -2.5233    0.9299 H   0  0  0  0  0  0  0  0  0  0  0  0
  1  2  1  0  0  0  0
  1 12  1  0  0  0  0
  1 13  1  0  0  0  0
  1 14  1  0  0  0  0
  2  3  1  0  0  0  0
  2  4  1  0  0  0  0
  2  5  1  0  0  0  0
  3 15  1  0  0  0  0
  3 16  1  0  0  0  0
  3 17  1  0  0  0  0
  4 18  1  0  0  0  0
  4 19  1  0  0  0  0
  4 20  1  0  0  0  0
  5 21  1  0  0  0  0
  5 22  1  0  0  0  0
  6  8  1  0  0  0  0
  6  7  1  0  0  0  0
  6  5  1  0  0  0  0
  6 23  1  6  0  0  0
  7 24  1  0  0  0  0
  8  9  1  0  0  0  0
  8 25  1  0  0  0  0
  8 26  1  0  0  0  0
  9 10  1  0  0  0  0
  9 11  2  0  0  0  0
 10 27  1  0  0  0  0
 10 28  1  0  0  0  0
M  CHG  1   2   1
M  END
$$$$
