CHEBI:15843
 OpenBabel04242413213D

 54 53  0  0  0  0  0  0  0  0999 V2000
   11.7402   -3.9355    9.6849 C   0  0  0  0  0  0  0  0  0  0  0  0
   10.7459   -4.3724    8.6232 C   0  0  0  0  0  0  0  0  0  0  0  0
   11.2650   -5.5757    7.8325 C   0  0  0  0  0  0  0  0  0  0  0  0
   10.2424   -6.0082    6.7838 C   0  0  0  0  0  0  0  0  0  0  0  0
   10.6155   -7.2939    6.0447 C   0  0  0  0  0  0  0  0  0  0  0  0
   10.2338   -8.5075    6.8474 C   0  0  0  0  0  0  0  0  0  0  0  0
    9.2266   -9.3630    6.5996 C   0  0  0  0  0  0  0  0  0  0  0  0
    8.2716   -9.3500    5.4397 C   0  0  0  0  0  0  0  0  0  0  0  0
    6.8910   -8.9344    5.8560 C   0  0  0  0  0  0  0  0  0  0  0  0
    6.2805   -7.7571    5.6368 C   0  0  0  0  0  0  0  0  0  0  0  0
    6.8270   -6.5283    4.9661 C   0  0  0  0  0  0  0  0  0  0  0  0
    6.7701   -5.3454    5.8854 C   0  0  0  0  0  0  0  0  0  0  0  0
    5.7432   -4.5102    6.1011 C   0  0  0  0  0  0  0  0  0  0  0  0
    4.3788   -4.5674    5.4988 C   0  0  0  0  0  0  0  0  0  0  0  0
    4.0348   -3.4921    4.5024 C   0  0  0  0  0  0  0  0  0  0  0  0
    4.5102   -2.2527    4.2853 C   0  0  0  0  0  0  0  0  0  0  0  0
    5.6016   -1.5003    4.9947 C   0  0  0  0  0  0  0  0  0  0  0  0
    5.2069   -1.0381    6.4023 C   0  0  0  0  0  0  0  0  0  0  0  0
    6.2549   -0.1607    7.0919 C   0  0  0  0  0  0  0  0  0  0  0  0
    7.5715   -0.8478    7.3960 C   0  0  0  0  0  0  0  0  0  0  0  0
    8.0827   -1.7357    6.7326 O   0  0  0  0  0  0  0  0  0  0  0  0
    8.1941   -0.3324    8.4814 O   0  0  0  0  0  0  0  0  0  0  0  0
   11.3457   -3.0826   10.2459 H   0  0  0  0  0  0  0  0  0  0  0  0
   12.6900   -3.6362    9.2312 H   0  0  0  0  0  0  0  0  0  0  0  0
   11.9364   -4.7468   10.3931 H   0  0  0  0  0  0  0  0  0  0  0  0
   10.5462   -3.5343    7.9450 H   0  0  0  0  0  0  0  0  0  0  0  0
    9.7955   -4.6275    9.1076 H   0  0  0  0  0  0  0  0  0  0  0  0
   11.4735   -6.4019    8.5210 H   0  0  0  0  0  0  0  0  0  0  0  0
   12.2079   -5.3162    7.3369 H   0  0  0  0  0  0  0  0  0  0  0  0
   10.1248   -5.1993    6.0519 H   0  0  0  0  0  0  0  0  0  0  0  0
    9.2760   -6.1472    7.2794 H   0  0  0  0  0  0  0  0  0  0  0  0
   11.6890   -7.3202    5.8275 H   0  0  0  0  0  0  0  0  0  0  0  0
   10.1117   -7.2947    5.0740 H   0  0  0  0  0  0  0  0  0  0  0  0
   10.8282   -8.6751    7.7445 H   0  0  0  0  0  0  0  0  0  0  0  0
    9.0711  -10.1711    7.3139 H   0  0  0  0  0  0  0  0  0  0  0  0
    8.2107  -10.3718    5.0426 H   0  0  0  0  0  0  0  0  0  0  0  0
    8.6374   -8.7475    4.6055 H   0  0  0  0  0  0  0  0  0  0  0  0
    6.3194   -9.6995    6.3803 H   0  0  0  0  0  0  0  0  0  0  0  0
    5.2564   -7.6579    5.9953 H   0  0  0  0  0  0  0  0  0  0  0  0
    6.2582   -6.3283    4.0516 H   0  0  0  0  0  0  0  0  0  0  0  0
    7.8650   -6.6623    4.6481 H   0  0  0  0  0  0  0  0  0  0  0  0
    7.6777   -5.1287    6.4388 H   0  0  0  0  0  0  0  0  0  0  0  0
    5.9169   -3.7351    6.8404 H   0  0  0  0  0  0  0  0  0  0  0  0
    3.6385   -4.5374    6.3075 H   0  0  0  0  0  0  0  0  0  0  0  0
    4.2336   -5.5343    5.0035 H   0  0  0  0  0  0  0  0  0  0  0  0
    3.2261   -3.8045    3.8387 H   0  0  0  0  0  0  0  0  0  0  0  0
    4.0585   -1.6993    3.4610 H   0  0  0  0  0  0  0  0  0  0  0  0
    5.8360   -0.6121    4.3931 H   0  0  0  0  0  0  0  0  0  0  0  0
    6.5126   -2.1025    4.9877 H   0  0  0  0  0  0  0  0  0  0  0  0
    4.9774   -1.8914    7.0467 H   0  0  0  0  0  0  0  0  0  0  0  0
    4.2755   -0.4606    6.3354 H   0  0  0  0  0  0  0  0  0  0  0  0
    5.8170    0.1633    8.0442 H   0  0  0  0  0  0  0  0  0  0  0  0
    6.4638    0.7341    6.4970 H   0  0  0  0  0  0  0  0  0  0  0  0
    7.7069    0.3874    8.9231 H   0  0  0  0  0  0  0  0  0  0  0  0
  1  2  1  0  0  0  0
  1 23  1  0  0  0  0
  1 24  1  0  0  0  0
  1 25  1  0  0  0  0
  2  3  1  0  0  0  0
  2 26  1  0  0  0  0
  2 27  1  0  0  0  0
  3  4  1  0  0  0  0
  3 28  1  0  0  0  0
  3 29  1  0  0  0  0
  4  5  1  0  0  0  0
  4 30  1  0  0  0  0
  4 31  1  0  0  0  0
  5  6  1  0  0  0  0
  5 32  1  0  0  0  0
  5 33  1  0  0  0  0
  6  7  2  0  0  0  0
  6 34  1  0  0  0  0
  7  8  1  0  0  0  0
  7 35  1  0  0  0  0
  8  9  1  0  0  0  0
  8 36  1  0  0  0  0
  8 37  1  0  0  0  0
  9 10  2  0  0  0  0
  9 38  1  0  0  0  0
 10 11  1  0  0  0  0
 10 39  1  0  0  0  0
 11 12  1  0  0  0  0
 11 40  1  0  0  0  0
 11 41  1  0  0  0  0
 12 13  2  0  0  0  0
 12 42  1  0  0  0  0
 13 14  1  0  0  0  0
 13 43  1  0  0  0  0
 14 15  1  0  0  0  0
 14 44  1  0  0  0  0
 14 45  1  0  0  0  0
 15 16  2  0  0  0  0
 15 46  1  0  0  0  0
 16 17  1  0  0  0  0
 16 47  1  0  0  0  0
 17 18  1  0  0  0  0
 17 48  1  0  0  0  0
 17 49  1  0  0  0  0
 18 19  1  0  0  0  0
 18 50  1  0  0  0  0
 18 51  1  0  0  0  0
 19 20  1  0  0  0  0
 19 52  1  0  0  0  0
 19 53  1  0  0  0  0
 20 21  2  0  0  0  0
 20 22  1  0  0  0  0
 22 54  1  0  0  0  0
M  END
$$$$
