CHEBI:17037
 OpenBabel04242415443D

 50 53  0  0  1  0  0  0  0  0999 V2000
    3.5459    0.1685   -0.2406 C   0  0  0  0  0  0  0  0  0  0  0  0
    4.4747   -0.9801   -0.0039 C   0  0  0  0  0  0  0  0  0  0  0  0
    4.9016   -1.9042   -0.8911 C   0  0  0  0  0  0  0  0  0  0  0  0
    5.8642   -2.9982   -0.4725 C   0  0  0  0  0  0  0  0  0  0  0  0
    5.3536   -4.3454   -0.7345 N   0  0  0  0  0  0  0  0  0  0  0  0
    6.3813   -5.3654   -0.3829 C   0  0  0  0  0  0  0  0  0  0  0  0
    7.6491   -5.3830   -1.2836 C   0  0  0  0  0  0  0  0  0  0  0  0
    7.2600   -5.2436   -2.7149 C   0  0  0  0  0  0  0  0  0  0  0  0
    5.9892   -4.8358   -3.0694 C   0  0  0  0  0  0  0  0  0  0  0  0
    5.9039   -4.8783   -4.4345 N   0  0  0  0  0  0  0  0  0  0  0  0
    7.1178   -5.2461   -4.9720 C   0  0  0  0  0  0  0  0  0  0  0  0
    7.4952   -5.4022   -6.3108 C   0  0  0  0  0  0  0  0  0  0  0  0
    8.8098   -5.7988   -6.5704 C   0  0  0  0  0  0  0  0  0  0  0  0
    9.7083   -6.0292   -5.5309 C   0  0  0  0  0  0  0  0  0  0  0  0
    9.3137   -5.8734   -4.1964 C   0  0  0  0  0  0  0  0  0  0  0  0
    7.9941   -5.4750   -3.9085 C   0  0  0  0  0  0  0  0  0  0  0  0
    4.8656   -4.5412   -2.1209 C   0  0  2  0  0  0  0  0  0  0  0  0
    3.9283   -3.4153   -2.5728 C   0  0  0  0  0  0  0  0  0  0  0  0
    4.4642   -1.9858   -2.3487 C   0  0  2  0  0  0  0  0  0  0  0  0
    5.5055   -1.5008   -3.3587 C   0  0  0  0  0  0  0  0  0  0  0  0
    6.7184   -0.9971   -3.0523 C   0  0  0  0  0  0  0  0  0  0  0  0
    7.6836   -0.5599   -3.9256 O   0  0  0  0  0  0  0  0  0  0  0  0
    5.1439   -1.4858   -4.8041 C   0  0  0  0  0  0  0  0  0  0  0  0
    5.9663   -1.4162   -5.7079 O   0  0  0  0  0  0  0  0  0  0  0  0
    3.7993   -1.5091   -4.9741 O   0  0  0  0  0  0  0  0  0  0  0  0
    3.3837   -1.4059   -6.3370 C   0  0  0  0  0  0  0  0  0  0  0  0
    3.9797    1.0803    0.1826 H   0  0  0  0  0  0  0  0  0  0  0  0
    2.5905   -0.0166    0.2598 H   0  0  0  0  0  0  0  0  0  0  0  0
    3.3523    0.3666   -1.2966 H   0  0  0  0  0  0  0  0  0  0  0  0
    4.8338   -1.0454    1.0233 H   0  0  0  0  0  0  0  0  0  0  0  0
    6.0673   -2.9137    0.6032 H   0  0  0  0  0  0  0  0  0  0  0  0
    6.8243   -2.8283   -0.9686 H   0  0  0  0  0  0  0  0  0  0  0  0
    5.9013   -6.3525   -0.4332 H   0  0  0  0  0  0  0  0  0  0  0  0
    6.6842   -5.2442    0.6647 H   0  0  0  0  0  0  0  0  0  0  0  0
    8.1942   -6.3200   -1.1248 H   0  0  0  0  0  0  0  0  0  0  0  0
    8.3196   -4.5605   -1.0091 H   0  0  0  0  0  0  0  0  0  0  0  0
    5.0805   -4.6823   -4.9853 H   0  0  0  0  0  0  0  0  0  0  0  0
    6.7981   -5.2216   -7.1222 H   0  0  0  0  0  0  0  0  0  0  0  0
    9.1349   -5.9273   -7.6002 H   0  0  0  0  0  0  0  0  0  0  0  0
   10.7272   -6.3336   -5.7564 H   0  0  0  0  0  0  0  0  0  0  0  0
   10.0210   -6.0565   -3.3938 H   0  0  0  0  0  0  0  0  0  0  0  0
    4.2523   -5.4544   -2.1033 H   0  0  0  0  0  0  0  0  0  0  0  0
    2.9990   -3.5096   -1.9896 H   0  0  0  0  0  0  0  0  0  0  0  0
    3.6209   -3.5685   -3.6127 H   0  0  0  0  0  0  0  0  0  0  0  0
    3.5958   -1.3304   -2.4863 H   0  0  0  0  0  0  0  0  0  0  0  0
    7.0892   -0.8664   -2.0430 H   0  0  0  0  0  0  0  0  0  0  0  0
    7.4185   -0.8054   -4.8395 H   0  0  0  0  0  0  0  0  0  0  0  0
    3.6162   -0.4096   -6.7257 H   0  0  0  0  0  0  0  0  0  0  0  0
    2.3006   -1.5500   -6.3724 H   0  0  0  0  0  0  0  0  0  0  0  0
    3.8544   -2.1812   -6.9502 H   0  0  0  0  0  0  0  0  0  0  0  0
  1  2  1  0  0  0  0
  1 27  1  0  0  0  0
  1 28  1  0  0  0  0
  1 29  1  0  0  0  0
  2  3  2  0  0  0  0
  2 30  1  0  0  0  0
  3  4  1  0  0  0  0
  3 19  1  0  0  0  0
  4  5  1  0  0  0  0
  4 31  1  0  0  0  0
  4 32  1  0  0  0  0
  5  6  1  0  0  0  0
  5 17  1  0  0  0  0
  6  7  1  0  0  0  0
  6 33  1  0  0  0  0
  6 34  1  0  0  0  0
  7  8  1  0  0  0  0
  7 35  1  0  0  0  0
  7 36  1  0  0  0  0
  8  9  2  0  0  0  0
  8 16  1  0  0  0  0
  9 10  1  0  0  0  0
  9 17  1  0  0  0  0
 10 11  1  0  0  0  0
 10 37  1  0  0  0  0
 11 12  1  0  0  0  0
 11 16  2  0  0  0  0
 12 13  2  0  0  0  0
 12 38  1  0  0  0  0
 13 14  1  0  0  0  0
 13 39  1  0  0  0  0
 14 15  2  0  0  0  0
 14 40  1  0  0  0  0
 15 16  1  0  0  0  0
 15 41  1  0  0  0  0
 17 18  1  0  0  0  0
 17 42  1  1  0  0  0
 18 19  1  0  0  0  0
 18 43  1  0  0  0  0
 18 44  1  0  0  0  0
 19 20  1  0  0  0  0
 19 45  1  6  0  0  0
 20 21  2  0  0  0  0
 20 23  1  0  0  0  0
 21 22  1  0  0  0  0
 21 46  1  0  0  0  0
 22 47  1  0  0  0  0
 23 24  2  0  0  0  0
 23 25  1  0  0  0  0
 25 26  1  0  0  0  0
 26 48  1  0  0  0  0
 26 49  1  0  0  0  0
 26 50  1  0  0  0  0
M  END
$$$$
