CHEBI:16390
 OpenBabel04242414173D

 67 70  0  0  1  0  0  0  0  0999 V2000
    1.2926   -2.2955    2.6161 C   0  0  0  0  0  0  0  0  0  0  0  0
    2.6882   -1.6901    2.4743 C   0  0  2  0  0  0  0  0  0  0  0  0
    2.6926   -0.2838    3.1431 C   0  0  0  0  0  0  0  0  0  0  0  0
    1.7734    0.7506    2.4872 C   0  0  0  0  0  0  0  0  0  0  0  0
    1.9521    2.1090    3.1104 C   0  0  0  0  0  0  0  0  0  0  0  0
    2.3098    2.3591    4.2489 O   0  0  0  0  0  0  0  0  0  0  0  0
    1.6337    3.1037    2.2587 O   0  0  0  0  0  0  0  0  0  0  0  0
    3.2373   -1.6574    1.0128 C   0  0  1  0  0  0  0  0  0  0  0  0
    4.6610   -1.0274    1.0055 C   0  0  0  0  0  0  0  0  0  0  0  0
    5.4861   -1.7423   -0.0574 C   0  0  0  0  0  0  0  0  0  0  0  0
    4.4702   -2.5194   -0.8980 C   0  0  1  0  0  0  0  0  0  0  0  0
    3.9097   -1.6021   -2.0237 C   0  0  2  0  0  0  0  0  0  0  0  0
    4.9414   -1.3576   -3.1278 C   0  0  0  0  0  0  0  0  0  0  0  0
    6.0738   -1.8360   -3.1123 O   0  0  0  0  0  0  0  0  0  0  0  0
    4.5008   -0.4382   -4.2445 C   0  0  0  0  0  0  0  0  0  0  0  0
    3.2268   -1.0046   -4.8698 C   0  0  2  0  0  0  0  0  0  0  0  0
    2.7885   -0.1810   -6.0861 C   0  0  0  0  0  0  0  0  0  0  0  0
    1.5823   -0.8158   -6.7770 C   0  0  2  0  0  0  0  0  0  0  0  0
    1.1119    0.0512   -7.8030 O   0  0  0  0  0  0  0  0  0  0  0  0
    0.4351   -1.0884   -5.8093 C   0  0  0  0  0  0  0  0  0  0  0  0
    0.8825   -1.8599   -4.5654 C   0  0  0  0  0  0  0  0  0  0  0  0
    2.0807   -1.2009   -3.8226 C   0  0  1  0  0  0  0  0  0  0  0  0
    1.6014    0.1470   -3.2239 C   0  0  0  0  0  0  0  0  0  0  0  0
    2.6308   -2.1592   -2.6918 C   0  0  1  0  0  0  0  0  0  0  0  0
    1.5939   -2.5263   -1.6247 C   0  0  0  0  0  0  0  0  0  0  0  0
    2.1710   -3.5079   -0.6074 C   0  0  2  0  0  0  0  0  0  0  0  0
    1.1068   -3.9110    0.2373 O   0  0  0  0  0  0  0  0  0  0  0  0
    3.4076   -2.9703    0.1633 C   0  0  2  0  0  0  0  0  0  0  0  0
    3.9763   -4.1148    1.0380 C   0  0  0  0  0  0  0  0  0  0  0  0
    0.8646   -2.0768    3.6011 H   0  0  0  0  0  0  0  0  0  0  0  0
    1.3309   -3.3843    2.5459 H   0  0  0  0  0  0  0  0  0  0  0  0
    0.6040   -1.9067    1.8600 H   0  0  0  0  0  0  0  0  0  0  0  0
    3.3663   -2.3090    3.0773 H   0  0  0  0  0  0  0  0  0  0  0  0
    3.7143    0.1121    3.1802 H   0  0  0  0  0  0  0  0  0  0  0  0
    2.4001   -0.3967    4.1963 H   0  0  0  0  0  0  0  0  0  0  0  0
    0.7213    0.4682    2.5929 H   0  0  0  0  0  0  0  0  0  0  0  0
    2.0065    0.8420    1.4223 H   0  0  0  0  0  0  0  0  0  0  0  0
    1.7792    3.9196    2.7821 H   0  0  0  0  0  0  0  0  0  0  0  0
    2.5881   -0.9856    0.4419 H   0  0  0  0  0  0  0  0  0  0  0  0
    5.1704   -1.1255    1.9705 H   0  0  0  0  0  0  0  0  0  0  0  0
    4.5906    0.0434    0.7801 H   0  0  0  0  0  0  0  0  0  0  0  0
    6.1886   -2.4351    0.4209 H   0  0  0  0  0  0  0  0  0  0  0  0
    6.0933   -1.0345   -0.6292 H   0  0  0  0  0  0  0  0  0  0  0  0
    4.9511   -3.3943   -1.3543 H   0  0  0  0  0  0  0  0  0  0  0  0
    3.6994   -0.6193   -1.5876 H   0  0  0  0  0  0  0  0  0  0  0  0
    5.3020   -0.3908   -4.9911 H   0  0  0  0  0  0  0  0  0  0  0  0
    4.3635    0.5708   -3.8441 H   0  0  0  0  0  0  0  0  0  0  0  0
    3.4863   -2.0051   -5.2516 H   0  0  0  0  0  0  0  0  0  0  0  0
    3.6121   -0.1100   -6.8086 H   0  0  0  0  0  0  0  0  0  0  0  0
    2.5667    0.8563   -5.8075 H   0  0  0  0  0  0  0  0  0  0  0  0
    1.8836   -1.7583   -7.2499 H   0  0  0  0  0  0  0  0  0  0  0  0
    1.8421    0.1921   -8.4297 H   0  0  0  0  0  0  0  0  0  0  0  0
   -0.3486   -1.6547   -6.3284 H   0  0  0  0  0  0  0  0  0  0  0  0
   -0.0447   -0.1448   -5.5217 H   0  0  0  0  0  0  0  0  0  0  0  0
    1.1571   -2.8791   -4.8681 H   0  0  0  0  0  0  0  0  0  0  0  0
    0.0182   -1.9552   -3.8981 H   0  0  0  0  0  0  0  0  0  0  0  0
    1.2759    0.8529   -3.9930 H   0  0  0  0  0  0  0  0  0  0  0  0
    2.3788    0.6565   -2.6499 H   0  0  0  0  0  0  0  0  0  0  0  0
    0.7447    0.0015   -2.5574 H   0  0  0  0  0  0  0  0  0  0  0  0
    2.9125   -3.0994   -3.1918 H   0  0  0  0  0  0  0  0  0  0  0  0
    0.7193   -2.9969   -2.0888 H   0  0  0  0  0  0  0  0  0  0  0  0
    1.2056   -1.6405   -1.1118 H   0  0  0  0  0  0  0  0  0  0  0  0
    2.4738   -4.4067   -1.1631 H   0  0  0  0  0  0  0  0  0  0  0  0
    1.3551   -4.7572    0.6473 H   0  0  0  0  0  0  0  0  0  0  0  0
    3.2391   -4.4803    1.7587 H   0  0  0  0  0  0  0  0  0  0  0  0
    4.8544   -3.8084    1.6147 H   0  0  0  0  0  0  0  0  0  0  0  0
    4.2754   -4.9665    0.4165 H   0  0  0  0  0  0  0  0  0  0  0  0
  1  2  1  0  0  0  0
  1 30  1  0  0  0  0
  1 31  1  0  0  0  0
  1 32  1  0  0  0  0
  2  3  1  0  0  0  0
  2 33  1  1  0  0  0
  3  4  1  0  0  0  0
  3 34  1  0  0  0  0
  3 35  1  0  0  0  0
  4  5  1  0  0  0  0
  4 36  1  0  0  0  0
  4 37  1  0  0  0  0
  5  6  2  0  0  0  0
  5  7  1  0  0  0  0
  7 38  1  0  0  0  0
  8  9  1  0  0  0  0
  8 28  1  0  0  0  0
  8  2  1  0  0  0  0
  8 39  1  6  0  0  0
  9 10  1  0  0  0  0
  9 40  1  0  0  0  0
  9 41  1  0  0  0  0
 10 11  1  0  0  0  0
 10 42  1  0  0  0  0
 10 43  1  0  0  0  0
 11 12  1  0  0  0  0
 11 28  1  0  0  0  0
 11 44  1  1  0  0  0
 12 13  1  0  0  0  0
 12 24  1  0  0  0  0
 12 45  1  6  0  0  0
 13 15  1  0  0  0  0
 13 14  2  0  0  0  0
 15 16  1  0  0  0  0
 15 46  1  0  0  0  0
 15 47  1  0  0  0  0
 16 17  1  0  0  0  0
 16 22  1  0  0  0  0
 16 48  1  6  0  0  0
 17 18  1  0  0  0  0
 17 49  1  0  0  0  0
 17 50  1  0  0  0  0
 18 20  1  0  0  0  0
 18 19  1  0  0  0  0
 18 51  1  6  0  0  0
 19 52  1  0  0  0  0
 20 21  1  0  0  0  0
 20 53  1  0  0  0  0
 20 54  1  0  0  0  0
 21 22  1  0  0  0  0
 21 55  1  0  0  0  0
 21 56  1  0  0  0  0
 22 24  1  0  0  0  0
 22 23  1  6  0  0  0
 23 57  1  0  0  0  0
 23 58  1  0  0  0  0
 23 59  1  0  0  0  0
 24 25  1  0  0  0  0
 24 60  1  1  0  0  0
 25 26  1  0  0  0  0
 25 61  1  0  0  0  0
 25 62  1  0  0  0  0
 26 28  1  0  0  0  0
 26 27  1  0  0  0  0
 26 63  1  6  0  0  0
 27 64  1  0  0  0  0
 28 29  1  1  0  0  0
 29 65  1  0  0  0  0
 29 66  1  0  0  0  0
 29 67  1  0  0  0  0
M  END
$$$$
