CHEBI:17262
 OpenBabel04242416073D

 61 63  0  0  1  0  0  0  0  0999 V2000
    5.6759    2.2794   -2.3980 C   0  0  0  0  0  0  0  0  0  0  0  0
    5.8237    1.9744   -0.9441 C   0  0  0  0  0  0  0  0  0  0  0  0
    5.3533    2.7465    0.0439 C   0  0  0  0  0  0  0  0  0  0  0  0
    5.5061    2.4200    1.3774 N   0  0  0  0  0  0  0  0  0  0  0  0
    4.9958    3.2768    2.4381 C   0  0  1  0  0  0  0  0  0  0  0  0
    6.0333    4.2484    2.9824 C   0  0  0  0  0  0  0  0  0  0  0  0
    5.1663    5.3570    3.5295 C   0  0  2  0  0  0  0  0  0  0  0  0
    4.7323    5.0199    4.8471 O   0  0  0  0  0  0  0  0  0  0  0  0
    3.9914    5.3963    2.5523 C   0  0  1  0  0  0  0  0  0  0  0  0
    4.2139    6.4043    1.4155 C   0  0  0  0  0  0  0  0  0  0  0  0
    3.1757    6.3644    0.4353 O   0  0  0  0  0  0  0  0  0  0  0  0
    1.5925    6.7607    1.0089 P   0  0  0  0  0  0  0  0  0  0  0  0
    1.9276    8.2597    0.9515 O   0  0  0  0  0  0  0  0  0  0  0  0
    0.9814    6.4053   -0.4605 O   0  0  0  0  0  0  0  0  0  0  0  0
    0.0092    7.1570    1.5826 O   0  0  0  0  0  0  0  0  0  0  0  0
   -0.0705    7.7933    3.0454 P   0  0  0  0  0  0  0  0  0  0  0  0
    0.8884    7.1916    4.0160 O   0  0  0  0  0  0  0  0  0  0  0  0
    0.1323    9.3515    2.7361 O   0  0  0  0  0  0  0  0  0  0  0  0
   -1.6369    7.7054    3.3633 O   0  0  0  0  0  0  0  0  0  0  0  0
   -2.0410    7.5366    4.7069 C   0  0  0  0  0  0  0  0  0  0  0  0
   -2.0554    8.7816    5.4140 O   0  0  0  0  0  0  0  0  0  0  0  0
   -2.9961    9.7262    4.8526 C   0  0  2  0  0  0  0  0  0  0  0  0
   -2.9462   11.0127    5.6711 C   0  0  0  0  0  0  0  0  0  0  0  0
   -3.5587   12.0350    5.3950 O   0  0  0  0  0  0  0  0  0  0  0  0
   -2.1165   10.9153    6.7415 O   0  0  0  0  0  0  0  0  0  0  0  0
   -4.4276    9.1800    4.8354 C   0  0  2  0  0  0  0  0  0  0  0  0
   -4.8980    8.9551    6.1762 O   0  0  0  0  0  0  0  0  0  0  0  0
   -4.4629    7.8301    4.1109 C   0  0  2  0  0  0  0  0  0  0  0  0
   -5.7822    7.2694    4.2339 O   0  0  0  0  0  0  0  0  0  0  0  0
   -3.4377    6.8797    4.7455 C   0  0  1  0  0  0  0  0  0  0  0  0
   -3.4529    5.6197    4.0620 O   0  0  0  0  0  0  0  0  0  0  0  0
    3.8747    4.0687    1.9923 O   0  0  0  0  0  0  0  0  0  0  0  0
    6.2083    1.2879    1.7718 C   0  0  0  0  0  0  0  0  0  0  0  0
    6.4135    0.9826    2.9447 O   0  0  0  0  0  0  0  0  0  0  0  0
    6.6823    0.4987    0.7597 N   0  0  0  0  0  0  0  0  0  0  0  0
    6.5344    0.7274   -0.5770 C   0  0  0  0  0  0  0  0  0  0  0  0
    6.9683   -0.0474   -1.4222 O   0  0  0  0  0  0  0  0  0  0  0  0
    5.1536    3.2277   -2.5626 H   0  0  0  0  0  0  0  0  0  0  0  0
    5.1031    1.4921   -2.8988 H   0  0  0  0  0  0  0  0  0  0  0  0
    6.6578    2.3540   -2.8768 H   0  0  0  0  0  0  0  0  0  0  0  0
    4.8184    3.6655   -0.1804 H   0  0  0  0  0  0  0  0  0  0  0  0
    4.6182    2.6419    3.2498 H   0  0  0  0  0  0  0  0  0  0  0  0
    6.6644    4.6327    2.1722 H   0  0  0  0  0  0  0  0  0  0  0  0
    6.6798    3.7787    3.7301 H   0  0  0  0  0  0  0  0  0  0  0  0
    5.6971    6.3101    3.6052 H   0  0  0  0  0  0  0  0  0  0  0  0
    4.0893    4.2897    4.8119 H   0  0  0  0  0  0  0  0  0  0  0  0
    3.0472    5.6042    3.0644 H   0  0  0  0  0  0  0  0  0  0  0  0
    5.1423    6.1765    0.8818 H   0  0  0  0  0  0  0  0  0  0  0  0
    4.2955    7.4221    1.8102 H   0  0  0  0  0  0  0  0  0  0  0  0
    1.0337    7.2001   -1.0228 H   0  0  0  0  0  0  0  0  0  0  0  0
    0.9291    9.4891    2.1747 H   0  0  0  0  0  0  0  0  0  0  0  0
   -1.3380    6.8666    5.2126 H   0  0  0  0  0  0  0  0  0  0  0  0
   -2.6552    9.9848    3.8430 H   0  0  0  0  0  0  0  0  0  0  0  0
   -1.7518   10.0009    6.7598 H   0  0  0  0  0  0  0  0  0  0  0  0
   -5.1214    9.8906    4.3718 H   0  0  0  0  0  0  0  0  0  0  0  0
   -5.7795    8.5400    6.0712 H   0  0  0  0  0  0  0  0  0  0  0  0
   -4.2672    7.9649    3.0403 H   0  0  0  0  0  0  0  0  0  0  0  0
   -5.8641    6.6024    3.5268 H   0  0  0  0  0  0  0  0  0  0  0  0
   -3.7122    6.6793    5.7889 H   0  0  0  0  0  0  0  0  0  0  0  0
   -4.2403    5.1442    4.3852 H   0  0  0  0  0  0  0  0  0  0  0  0
    7.1742   -0.3390    1.0282 H   0  0  0  0  0  0  0  0  0  0  0  0
  1  2  1  0  0  0  0
  1 38  1  0  0  0  0
  1 39  1  0  0  0  0
  1 40  1  0  0  0  0
  2  3  2  0  0  0  0
  2 36  1  0  0  0  0
  3  4  1  0  0  0  0
  3 41  1  0  0  0  0
  4  5  1  0  0  0  0
  4 33  1  0  0  0  0
  5  6  1  0  0  0  0
  5 32  1  0  0  0  0
  5 42  1  1  0  0  0
  6  7  1  0  0  0  0
  6 43  1  0  0  0  0
  6 44  1  0  0  0  0
  7  8  1  0  0  0  0
  7  9  1  0  0  0  0
  7 45  1  6  0  0  0
  8 46  1  0  0  0  0
  9 10  1  0  0  0  0
  9 32  1  0  0  0  0
  9 47  1  1  0  0  0
 10 11  1  0  0  0  0
 10 48  1  0  0  0  0
 10 49  1  0  0  0  0
 11 12  1  0  0  0  0
 12 13  2  0  0  0  0
 12 14  1  0  0  0  0
 12 15  1  0  0  0  0
 14 50  1  0  0  0  0
 15 16  1  0  0  0  0
 16 17  2  0  0  0  0
 16 18  1  0  0  0  0
 16 19  1  0  0  0  0
 18 51  1  0  0  0  0
 19 20  1  0  0  0  0
 20 21  1  0  0  0  0
 20 30  1  0  0  0  0
 20 52  1  0  0  0  0
 21 22  1  0  0  0  0
 22 26  1  0  0  0  0
 22 23  1  0  0  0  0
 22 53  1  6  0  0  0
 23 24  2  0  0  0  0
 23 25  1  0  0  0  0
 25 54  1  0  0  0  0
 26 27  1  0  0  0  0
 26 28  1  0  0  0  0
 26 55  1  6  0  0  0
 27 56  1  0  0  0  0
 28 29  1  0  0  0  0
 28 30  1  0  0  0  0
 28 57  1  6  0  0  0
 29 58  1  0  0  0  0
 30 31  1  0  0  0  0
 30 59  1  1  0  0  0
 31 60  1  0  0  0  0
 33 34  2  0  0  0  0
 33 35  1  0  0  0  0
 35 36  1  0  0  0  0
 35 61  1  0  0  0  0
 36 37  2  0  0  0  0
M  END
$$$$
