CHEBI:16859
 OpenBabel04242415263D

 16 15  0  0  0  0  0  0  0  0999 V2000
    2.2426    1.1934   -1.5839 C   0  0  0  0  0  0  0  0  0  0  0  0
    3.1212    0.8875   -0.4990 O   0  0  0  0  0  0  0  0  0  0  0  0
    3.9875    1.8895   -0.1885 C   0  0  0  0  0  0  0  0  0  0  0  0
    4.0828    2.9548   -0.7817 O   0  0  0  0  0  0  0  0  0  0  0  0
    4.8603    1.4800    0.9552 C   0  0  0  0  0  0  0  0  0  0  0  0
    5.5456    2.6548    1.5741 C   0  0  0  0  0  0  0  0  0  0  0  0
    6.7613    2.8110    1.6559 O   0  0  0  0  0  0  0  0  0  0  0  0
    4.6499    3.7224    2.1933 C   0  0  0  0  0  0  0  0  0  0  0  0
    3.4519    3.5788    2.3291 O   0  0  0  0  0  0  0  0  0  0  0  0
    5.3779    4.7766    2.6029 O   0  0  0  0  0  0  0  0  0  0  0  0
    1.5680    0.3441   -1.7230 H   0  0  0  0  0  0  0  0  0  0  0  0
    2.8130    1.3390   -2.5065 H   0  0  0  0  0  0  0  0  0  0  0  0
    1.6418    2.0791   -1.3543 H   0  0  0  0  0  0  0  0  0  0  0  0
    5.6179    0.7833    0.5829 H   0  0  0  0  0  0  0  0  0  0  0  0
    4.2681    0.9812    1.7289 H   0  0  0  0  0  0  0  0  0  0  0  0
    6.3297    4.6157    2.3998 H   0  0  0  0  0  0  0  0  0  0  0  0
  1  2  1  0  0  0  0
  1 11  1  0  0  0  0
  1 12  1  0  0  0  0
  1 13  1  0  0  0  0
  2  3  1  0  0  0  0
  3  4  2  0  0  0  0
  3  5  1  0  0  0  0
  5  6  1  0  0  0  0
  5 14  1  0  0  0  0
  5 15  1  0  0  0  0
  6  7  2  0  0  0  0
  6  8  1  0  0  0  0
  8  9  2  0  0  0  0
  8 10  1  0  0  0  0
 10 16  1  0  0  0  0
M  END
$$$$
