CHEBI:1712
 OpenBabel04242410363D

 57 60  0  0  1  0  0  0  0  0999 V2000
    3.6469   -0.3797    1.3536 C   0  0  0  0  0  0  0  0  0  0  0  0
    2.6454   -0.0272    0.2820 C   0  0  0  0  0  0  0  0  0  0  0  0
    1.5069    0.3163    0.5918 O   0  0  0  0  0  0  0  0  0  0  0  0
    3.1178   -0.1898   -1.1610 C   0  0  1  0  0  0  0  0  0  0  0  0
    2.9010   -1.6323   -1.6675 C   0  0  0  0  0  0  0  0  0  0  0  0
    2.6521   -1.5267   -3.1827 C   0  0  0  0  0  0  0  0  0  0  0  0
    2.9806   -0.0726   -3.5089 C   0  0  1  0  0  0  0  0  0  0  0  0
    2.4682    0.5243   -4.8245 C   0  0  2  0  0  0  0  0  0  0  0  0
    2.9412   -0.2846   -6.0386 C   0  0  0  0  0  0  0  0  0  0  0  0
    2.4774    0.3439   -7.3501 C   0  0  0  0  0  0  0  0  0  0  0  0
    2.8752    1.8235   -7.4915 C   0  0  2  0  0  0  0  0  0  0  0  0
    4.3859    1.9382   -7.7838 C   0  0  0  0  0  0  0  0  0  0  0  0
    4.8384    3.3870   -7.9324 C   0  0  2  0  0  0  0  0  0  0  0  0
    6.2476    3.4311   -8.1293 O   0  0  0  0  0  0  0  0  0  0  0  0
    4.4660    4.2104   -6.7065 C   0  0  0  0  0  0  0  0  0  0  0  0
    2.9680    4.1352   -6.4414 C   0  0  0  0  0  0  0  0  0  0  0  0
    2.4251    2.6866   -6.2627 C   0  0  1  0  0  0  0  0  0  0  0  0
    0.8780    2.8096   -6.2677 C   0  0  0  0  0  0  0  0  0  0  0  0
    2.9340    2.0127   -4.9308 C   0  0  1  0  0  0  0  0  0  0  0  0
    2.6132    2.8224   -3.6438 C   0  0  0  0  0  0  0  0  0  0  0  0
    3.0398    2.1186   -2.3430 C   0  0  0  0  0  0  0  0  0  0  0  0
    2.4783    0.6936   -2.2612 C   0  0  2  0  0  0  0  0  0  0  0  0
    0.9325    0.7433   -2.1560 C   0  0  0  0  0  0  0  0  0  0  0  0
    3.2142   -0.1843    2.3391 H   0  0  0  0  0  0  0  0  0  0  0  0
    4.5407    0.2383    1.2386 H   0  0  0  0  0  0  0  0  0  0  0  0
    3.9053   -1.4387    1.2826 H   0  0  0  0  0  0  0  0  0  0  0  0
    4.1993    0.0108   -1.1530 H   0  0  0  0  0  0  0  0  0  0  0  0
    2.0545   -2.1247   -1.1753 H   0  0  0  0  0  0  0  0  0  0  0  0
    3.7898   -2.2404   -1.4632 H   0  0  0  0  0  0  0  0  0  0  0  0
    1.6087   -1.7654   -3.4169 H   0  0  0  0  0  0  0  0  0  0  0  0
    3.2851   -2.2261   -3.7382 H   0  0  0  0  0  0  0  0  0  0  0  0
    4.0812   -0.0062   -3.5411 H   0  0  0  0  0  0  0  0  0  0  0  0
    1.3755    0.4776   -4.8243 H   0  0  0  0  0  0  0  0  0  0  0  0
    2.5470   -1.3063   -5.9847 H   0  0  0  0  0  0  0  0  0  0  0  0
    4.0337   -0.3751   -6.0306 H   0  0  0  0  0  0  0  0  0  0  0  0
    1.3869    0.2516   -7.4220 H   0  0  0  0  0  0  0  0  0  0  0  0
    2.8812   -0.2348   -8.1900 H   0  0  0  0  0  0  0  0  0  0  0  0
    2.3599    2.2082   -8.3837 H   0  0  0  0  0  0  0  0  0  0  0  0
    4.6289    1.3949   -8.7065 H   0  0  0  0  0  0  0  0  0  0  0  0
    4.9823    1.4524   -7.0028 H   0  0  0  0  0  0  0  0  0  0  0  0
    4.3749    3.8247   -8.8243 H   0  0  0  0  0  0  0  0  0  0  0  0
    6.6731    3.0503   -7.3425 H   0  0  0  0  0  0  0  0  0  0  0  0
    4.7636    5.2543   -6.8650 H   0  0  0  0  0  0  0  0  0  0  0  0
    5.0349    3.8758   -5.8310 H   0  0  0  0  0  0  0  0  0  0  0  0
    2.4564    4.6051   -7.2935 H   0  0  0  0  0  0  0  0  0  0  0  0
    2.7190    4.7596   -5.5767 H   0  0  0  0  0  0  0  0  0  0  0  0
    0.5229    3.2058   -7.2266 H   0  0  0  0  0  0  0  0  0  0  0  0
    0.5263    3.4983   -5.4927 H   0  0  0  0  0  0  0  0  0  0  0  0
    0.3709    1.8543   -6.1144 H   0  0  0  0  0  0  0  0  0  0  0  0
    4.0318    1.9831   -4.9782 H   0  0  0  0  0  0  0  0  0  0  0  0
    1.5442    3.0487   -3.5894 H   0  0  0  0  0  0  0  0  0  0  0  0
    3.1314    3.7871   -3.6754 H   0  0  0  0  0  0  0  0  0  0  0  0
    2.7132    2.7108   -1.4798 H   0  0  0  0  0  0  0  0  0  0  0  0
    4.1367    2.0961   -2.3031 H   0  0  0  0  0  0  0  0  0  0  0  0
    0.6169    1.4179   -1.3531 H   0  0  0  0  0  0  0  0  0  0  0  0
    0.4957   -0.2398   -1.9545 H   0  0  0  0  0  0  0  0  0  0  0  0
    0.4540    1.1229   -3.0622 H   0  0  0  0  0  0  0  0  0  0  0  0
  1  2  1  0  0  0  0
  1 24  1  0  0  0  0
  1 25  1  0  0  0  0
  1 26  1  0  0  0  0
  2  3  2  0  0  0  0
  2  4  1  0  0  0  0
  4  5  1  0  0  0  0
  4 22  1  0  0  0  0
  4 27  1  6  0  0  0
  5  6  1  0  0  0  0
  5 28  1  0  0  0  0
  5 29  1  0  0  0  0
  6  7  1  0  0  0  0
  6 30  1  0  0  0  0
  6 31  1  0  0  0  0
  7  8  1  0  0  0  0
  7 22  1  0  0  0  0
  7 32  1  6  0  0  0
  8  9  1  0  0  0  0
  8 19  1  0  0  0  0
  8 33  1  1  0  0  0
  9 10  1  0  0  0  0
  9 34  1  0  0  0  0
  9 35  1  0  0  0  0
 10 11  1  0  0  0  0
 10 36  1  0  0  0  0
 10 37  1  0  0  0  0
 11 12  1  0  0  0  0
 11 17  1  0  0  0  0
 11 38  1  6  0  0  0
 12 13  1  0  0  0  0
 12 39  1  0  0  0  0
 12 40  1  0  0  0  0
 13 14  1  0  0  0  0
 13 15  1  0  0  0  0
 13 41  1  6  0  0  0
 14 42  1  0  0  0  0
 15 16  1  0  0  0  0
 15 43  1  0  0  0  0
 15 44  1  0  0  0  0
 16 17  1  0  0  0  0
 16 45  1  0  0  0  0
 16 46  1  0  0  0  0
 17 18  1  1  0  0  0
 17 19  1  0  0  0  0
 18 47  1  0  0  0  0
 18 48  1  0  0  0  0
 18 49  1  0  0  0  0
 19 20  1  0  0  0  0
 19 50  1  6  0  0  0
 20 21  1  0  0  0  0
 20 51  1  0  0  0  0
 20 52  1  0  0  0  0
 21 22  1  0  0  0  0
 21 53  1  0  0  0  0
 21 54  1  0  0  0  0
 22 23  1  1  0  0  0
 23 55  1  0  0  0  0
 23 56  1  0  0  0  0
 23 57  1  0  0  0  0
M  END
$$$$
