CHEBI:5776
 OpenBabel04242411053D

 31 33  0  0  0  0  0  0  0  0999 V2000
    1.6859    0.0353   -1.4700 O   0  0  0  0  0  0  0  0  0  0  0  0
    2.6086    0.0183   -0.6686 C   0  0  0  0  0  0  0  0  0  0  0  0
    3.2402   -1.1520   -0.3693 O   0  0  0  0  0  0  0  0  0  0  0  0
    4.2186   -1.1862    0.6844 C   0  0  0  0  0  0  0  0  0  0  0  0
    4.8544   -2.5622    0.6903 C   0  0  0  0  0  0  0  0  0  0  0  0
    5.6288   -3.0191   -0.3896 C   0  0  0  0  0  0  0  0  0  0  0  0
    6.2078   -4.2910   -0.3678 C   0  0  0  0  0  0  0  0  0  0  0  0
    6.0024   -5.1175    0.7308 C   0  0  0  0  0  0  0  0  0  0  0  0
    6.5431   -6.3674    0.7919 O   0  0  0  0  0  0  0  0  0  0  0  0
    5.2284   -4.6939    1.8029 C   0  0  0  0  0  0  0  0  0  0  0  0
    4.6546   -3.4212    1.7833 C   0  0  0  0  0  0  0  0  0  0  0  0
    5.2339   -0.0633    0.4781 C   0  0  0  0  0  0  0  0  0  0  0  0
    4.4706    1.2308    0.4911 C   0  0  0  0  0  0  0  0  0  0  0  0
    5.0537    2.4011    0.9932 C   0  0  0  0  0  0  0  0  0  0  0  0
    4.3249    3.5880    1.0154 C   0  0  0  0  0  0  0  0  0  0  0  0
    3.0135    3.6131    0.5413 C   0  0  0  0  0  0  0  0  0  0  0  0
    2.4343    2.4522    0.0211 C   0  0  0  0  0  0  0  0  0  0  0  0
    1.1387    2.5018   -0.4058 O   0  0  0  0  0  0  0  0  0  0  0  0
    3.1617    1.2554   -0.0285 C   0  0  0  0  0  0  0  0  0  0  0  0
    3.6812   -1.0410    1.6323 H   0  0  0  0  0  0  0  0  0  0  0  0
    5.7744   -2.3919   -1.2667 H   0  0  0  0  0  0  0  0  0  0  0  0
    6.8026   -4.6176   -1.2148 H   0  0  0  0  0  0  0  0  0  0  0  0
    7.0117   -6.5418   -0.0406 H   0  0  0  0  0  0  0  0  0  0  0  0
    5.0640   -5.3557    2.6485 H   0  0  0  0  0  0  0  0  0  0  0  0
    4.0403   -3.1126    2.6265 H   0  0  0  0  0  0  0  0  0  0  0  0
    5.7454   -0.1410   -0.4887 H   0  0  0  0  0  0  0  0  0  0  0  0
    5.9890   -0.0823    1.2725 H   0  0  0  0  0  0  0  0  0  0  0  0
    6.0734    2.3931    1.3735 H   0  0  0  0  0  0  0  0  0  0  0  0
    4.7764    4.4952    1.4112 H   0  0  0  0  0  0  0  0  0  0  0  0
    2.4564    4.5448    0.5859 H   0  0  0  0  0  0  0  0  0  0  0  0
    0.8224    3.4188   -0.4176 H   0  0  0  0  0  0  0  0  0  0  0  0
  1  2  2  0  0  0  0
  2  3  1  0  0  0  0
  2 19  1  0  0  0  0
  3  4  1  0  0  0  0
  4  5  1  0  0  0  0
  4 12  1  0  0  0  0
  4 20  1  0  0  0  0
  5  6  1  0  0  0  0
  5 11  2  0  0  0  0
  6  7  2  0  0  0  0
  6 21  1  0  0  0  0
  7  8  1  0  0  0  0
  7 22  1  0  0  0  0
  8  9  1  0  0  0  0
  8 10  2  0  0  0  0
  9 23  1  0  0  0  0
 10 11  1  0  0  0  0
 10 24  1  0  0  0  0
 11 25  1  0  0  0  0
 12 13  1  0  0  0  0
 12 26  1  0  0  0  0
 12 27  1  0  0  0  0
 13 14  1  0  0  0  0
 13 19  2  0  0  0  0
 14 15  2  0  0  0  0
 14 28  1  0  0  0  0
 15 16  1  0  0  0  0
 15 29  1  0  0  0  0
 16 17  2  0  0  0  0
 16 30  1  0  0  0  0
 17 18  1  0  0  0  0
 17 19  1  0  0  0  0
 18 31  1  0  0  0  0
M  END
$$$$
