CHEBI:17853
 OpenBabel04242417423D

 16 15  0  0  0  0  0  0  0  0999 V2000
    2.2542   -1.2920    3.8647 C   0  0  0  0  0  0  0  0  0  0  0  0
    3.5583   -0.9854    3.1862 C   0  0  0  0  0  0  0  0  0  0  0  0
    4.4843   -0.4062    3.7393 O   0  0  0  0  0  0  0  0  0  0  0  0
    3.6310   -1.5008    1.5054 S   0  0  0  0  0  0  0  0  0  0  0  0
    5.3796   -1.1287    1.1334 C   0  0  0  0  0  0  0  0  0  0  0  0
    6.3619   -2.1084    1.7911 C   0  0  0  0  0  0  0  0  0  0  0  0
    6.1749   -3.4892    1.3395 N   0  0  0  0  0  0  0  0  0  0  0  0
    2.3525   -1.1001    4.9374 H   0  0  0  0  0  0  0  0  0  0  0  0
    1.9897   -2.3450    3.7326 H   0  0  0  0  0  0  0  0  0  0  0  0
    1.4647   -0.6511    3.4634 H   0  0  0  0  0  0  0  0  0  0  0  0
    5.6094   -0.1010    1.4342 H   0  0  0  0  0  0  0  0  0  0  0  0
    5.4965   -1.1713    0.0445 H   0  0  0  0  0  0  0  0  0  0  0  0
    6.2798   -2.0722    2.8823 H   0  0  0  0  0  0  0  0  0  0  0  0
    7.3835   -1.8029    1.5396 H   0  0  0  0  0  0  0  0  0  0  0  0
    5.2067   -3.7658    1.5052 H   0  0  0  0  0  0  0  0  0  0  0  0
    6.7539   -4.1093    1.9044 H   0  0  0  0  0  0  0  0  0  0  0  0
  1  2  1  0  0  0  0
  1  8  1  0  0  0  0
  1  9  1  0  0  0  0
  1 10  1  0  0  0  0
  2  3  2  0  0  0  0
  2  4  1  0  0  0  0
  4  5  1  0  0  0  0
  5  6  1  0  0  0  0
  5 11  1  0  0  0  0
  5 12  1  0  0  0  0
  6  7  1  0  0  0  0
  6 13  1  0  0  0  0
  6 14  1  0  0  0  0
  7 15  1  0  0  0  0
  7 16  1  0  0  0  0
M  END
$$$$
