CHEBI:16777
 OpenBabel04242415133D

 84 89  0  0  1  0  0  0  0  0999 V2000
   -2.2742    0.7893    9.0301 C   0  0  0  0  0  0  0  0  0  0  0  0
   -0.8796    0.8475    9.2971 O   0  0  0  0  0  0  0  0  0  0  0  0
   -0.0397    0.9330    8.2193 C   0  0  0  0  0  0  0  0  0  0  0  0
    1.2727    0.5396    8.5073 C   0  0  0  0  0  0  0  0  0  0  0  0
    2.2635    0.5615    7.5199 C   0  0  0  0  0  0  0  0  0  0  0  0
    1.9646    1.0212    6.2304 C   0  0  0  0  0  0  0  0  0  0  0  0
    0.6490    1.4118    5.9394 C   0  0  0  0  0  0  0  0  0  0  0  0
   -0.3412    1.3799    6.9287 C   0  0  0  0  0  0  0  0  0  0  0  0
   -1.5919    1.8312    6.6065 O   0  0  0  0  0  0  0  0  0  0  0  0
    3.0773    1.1599    5.1926 C   0  0  1  0  0  0  0  0  0  0  0  0
    3.7363    2.5709    5.2520 C   0  0  0  0  0  0  0  0  0  0  0  0
    2.8060    3.7095    4.8877 C   0  0  0  0  0  0  0  0  0  0  0  0
    2.1308    4.4166    5.8941 C   0  0  0  0  0  0  0  0  0  0  0  0
    1.2212    5.4222    5.5686 C   0  0  0  0  0  0  0  0  0  0  0  0
    0.9846    5.7263    4.2307 C   0  0  0  0  0  0  0  0  0  0  0  0
    0.0888    6.7073    3.9016 O   0  0  0  0  0  0  0  0  0  0  0  0
    1.6488    5.0357    3.2109 C   0  0  0  0  0  0  0  0  0  0  0  0
    1.4111    5.4520    1.9207 O   0  0  0  0  0  0  0  0  0  0  0  0
    1.4238    4.5445    0.8898 C   0  0  0  0  0  0  0  0  0  0  0  0
    0.8500    3.2736    0.9583 C   0  0  0  0  0  0  0  0  0  0  0  0
    0.8448    2.4484   -0.1708 C   0  0  0  0  0  0  0  0  0  0  0  0
    1.3884    2.8993   -1.3821 C   0  0  0  0  0  0  0  0  0  0  0  0
    1.3336    2.0385   -2.6282 C   0  0  0  0  0  0  0  0  0  0  0  0
   -0.0590    1.9910   -3.3376 C   0  0  1  0  0  0  0  0  0  0  0  0
   -0.4470    3.3694   -3.8732 C   0  0  0  0  0  0  0  0  0  0  0  0
   -1.0451    4.3206   -3.0300 C   0  0  0  0  0  0  0  0  0  0  0  0
   -1.3321    5.6129   -3.4855 C   0  0  0  0  0  0  0  0  0  0  0  0
   -1.8988    6.4930   -2.6049 O   0  0  0  0  0  0  0  0  0  0  0  0
   -1.0418    5.9768   -4.8025 C   0  0  0  0  0  0  0  0  0  0  0  0
   -1.2425    7.1820   -5.4195 O   0  0  0  0  0  0  0  0  0  0  0  0
   -1.7218    8.2633   -4.6343 C   0  0  0  0  0  0  0  0  0  0  0  0
   -0.4804    5.0149   -5.6530 C   0  0  0  0  0  0  0  0  0  0  0  0
   -0.1835    3.7176   -5.2058 C   0  0  0  0  0  0  0  0  0  0  0  0
    0.3171    2.6889   -6.1885 C   0  0  0  0  0  0  0  0  0  0  0  0
    0.7010    1.3391   -5.5627 C   0  0  0  0  0  0  0  0  0  0  0  0
   -0.1635    0.9886   -4.4292 N   0  0  0  0  0  0  0  0  0  0  0  0
    0.0559   -0.3825   -3.9880 C   0  0  0  0  0  0  0  0  0  0  0  0
    1.9485    4.1831   -1.4421 C   0  0  0  0  0  0  0  0  0  0  0  0
    1.9569    5.0027   -0.3143 C   0  0  0  0  0  0  0  0  0  0  0  0
    2.5776    4.0432    3.5437 C   0  0  0  0  0  0  0  0  0  0  0  0
    4.1797    0.1692    5.3261 N   0  0  0  0  0  0  0  0  0  0  0  0
    4.3107   -0.6600    4.1296 C   0  0  0  0  0  0  0  0  0  0  0  0
    4.1391   -0.6709    6.5336 C   0  0  0  0  0  0  0  0  0  0  0  0
    3.6603    0.0767    7.7829 C   0  0  0  0  0  0  0  0  0  0  0  0
   -2.7697    0.4480    9.9446 H   0  0  0  0  0  0  0  0  0  0  0  0
   -2.5108    0.0645    8.2437 H   0  0  0  0  0  0  0  0  0  0  0  0
   -2.6689    1.7835    8.8011 H   0  0  0  0  0  0  0  0  0  0  0  0
    1.5111    0.1941    9.5109 H   0  0  0  0  0  0  0  0  0  0  0  0
    0.4141    1.7743    4.9420 H   0  0  0  0  0  0  0  0  0  0  0  0
   -1.5661    2.2216    5.7176 H   0  0  0  0  0  0  0  0  0  0  0  0
    2.6063    1.0446    4.2058 H   0  0  0  0  0  0  0  0  0  0  0  0
    4.1583    2.7581    6.2490 H   0  0  0  0  0  0  0  0  0  0  0  0
    4.5909    2.6084    4.5615 H   0  0  0  0  0  0  0  0  0  0  0  0
    2.2969    4.1702    6.9420 H   0  0  0  0  0  0  0  0  0  0  0  0
    0.7063    5.9466    6.3676 H   0  0  0  0  0  0  0  0  0  0  0  0
   -0.1941    7.1590    4.7127 H   0  0  0  0  0  0  0  0  0  0  0  0
    0.3914    2.9229    1.8777 H   0  0  0  0  0  0  0  0  0  0  0  0
    0.3980    1.4589   -0.1041 H   0  0  0  0  0  0  0  0  0  0  0  0
    1.6420    1.0309   -2.3246 H   0  0  0  0  0  0  0  0  0  0  0  0
    2.1076    2.3870   -3.3242 H   0  0  0  0  0  0  0  0  0  0  0  0
   -0.8211    1.7175   -2.5943 H   0  0  0  0  0  0  0  0  0  0  0  0
   -1.2720    4.0447   -2.0031 H   0  0  0  0  0  0  0  0  0  0  0  0
   -1.9403    6.0775   -1.7276 H   0  0  0  0  0  0  0  0  0  0  0  0
   -1.7491    9.1495   -5.2764 H   0  0  0  0  0  0  0  0  0  0  0  0
   -1.0439    8.4888   -3.8048 H   0  0  0  0  0  0  0  0  0  0  0  0
   -2.7455    8.0811   -4.2930 H   0  0  0  0  0  0  0  0  0  0  0  0
   -0.2840    5.2850   -6.6891 H   0  0  0  0  0  0  0  0  0  0  0  0
    1.1824    3.0889   -6.7307 H   0  0  0  0  0  0  0  0  0  0  0  0
   -0.4840    2.5174   -6.9193 H   0  0  0  0  0  0  0  0  0  0  0  0
    1.7556    1.3572   -5.2616 H   0  0  0  0  0  0  0  0  0  0  0  0
    0.6263    0.5760   -6.3482 H   0  0  0  0  0  0  0  0  0  0  0  0
   -0.2270   -1.0820   -4.7828 H   0  0  0  0  0  0  0  0  0  0  0  0
   -0.5761   -0.6208   -3.1255 H   0  0  0  0  0  0  0  0  0  0  0  0
    1.0987   -0.5849   -3.7237 H   0  0  0  0  0  0  0  0  0  0  0  0
    2.3520    4.5673   -2.3773 H   0  0  0  0  0  0  0  0  0  0  0  0
    2.3670    6.0074   -0.3785 H   0  0  0  0  0  0  0  0  0  0  0  0
    3.1326    3.5304    2.7620 H   0  0  0  0  0  0  0  0  0  0  0  0
    4.4788   -0.0367    3.2444 H   0  0  0  0  0  0  0  0  0  0  0  0
    3.4185   -1.2731    3.9575 H   0  0  0  0  0  0  0  0  0  0  0  0
    5.1764   -1.3265    4.2124 H   0  0  0  0  0  0  0  0  0  0  0  0
    5.1454   -1.0629    6.7240 H   0  0  0  0  0  0  0  0  0  0  0  0
    3.4829   -1.5383    6.3720 H   0  0  0  0  0  0  0  0  0  0  0  0
    4.3135    0.9254    8.0161 H   0  0  0  0  0  0  0  0  0  0  0  0
    3.6760   -0.6072    8.6391 H   0  0  0  0  0  0  0  0  0  0  0  0
  1  2  1  0  0  0  0
  1 45  1  0  0  0  0
  1 46  1  0  0  0  0
  1 47  1  0  0  0  0
  2  3  1  0  0  0  0
  3  4  1  0  0  0  0
  3  8  2  0  0  0  0
  4  5  2  0  0  0  0
  4 48  1  0  0  0  0
  5  6  1  0  0  0  0
  5 44  1  0  0  0  0
  6  7  2  0  0  0  0
  6 10  1  0  0  0  0
  7  8  1  0  0  0  0
  7 49  1  0  0  0  0
  8  9  1  0  0  0  0
  9 50  1  0  0  0  0
 10 41  1  0  0  0  0
 10 11  1  0  0  0  0
 10 51  1  6  0  0  0
 11 12  1  0  0  0  0
 11 52  1  0  0  0  0
 11 53  1  0  0  0  0
 12 13  1  0  0  0  0
 12 40  2  0  0  0  0
 13 14  2  0  0  0  0
 13 54  1  0  0  0  0
 14 15  1  0  0  0  0
 14 55  1  0  0  0  0
 15 16  1  0  0  0  0
 15 17  2  0  0  0  0
 16 56  1  0  0  0  0
 17 18  1  0  0  0  0
 17 40  1  0  0  0  0
 18 19  1  0  0  0  0
 19 20  1  0  0  0  0
 19 39  2  0  0  0  0
 20 21  2  0  0  0  0
 20 57  1  0  0  0  0
 21 22  1  0  0  0  0
 21 58  1  0  0  0  0
 22 23  1  0  0  0  0
 22 38  2  0  0  0  0
 23 24  1  0  0  0  0
 23 59  1  0  0  0  0
 23 60  1  0  0  0  0
 24 25  1  0  0  0  0
 24 36  1  0  0  0  0
 24 61  1  1  0  0  0
 25 26  1  0  0  0  0
 25 33  2  0  0  0  0
 26 27  2  0  0  0  0
 26 62  1  0  0  0  0
 27 28  1  0  0  0  0
 27 29  1  0  0  0  0
 28 63  1  0  0  0  0
 29 30  1  0  0  0  0
 29 32  2  0  0  0  0
 30 31  1  0  0  0  0
 31 64  1  0  0  0  0
 31 65  1  0  0  0  0
 31 66  1  0  0  0  0
 32 33  1  0  0  0  0
 32 67  1  0  0  0  0
 33 34  1  0  0  0  0
 34 35  1  0  0  0  0
 34 68  1  0  0  0  0
 34 69  1  0  0  0  0
 35 36  1  0  0  0  0
 35 70  1  0  0  0  0
 35 71  1  0  0  0  0
 36 37  1  0  0  0  0
 37 72  1  0  0  0  0
 37 73  1  0  0  0  0
 37 74  1  0  0  0  0
 38 39  1  0  0  0  0
 38 75  1  0  0  0  0
 39 76  1  0  0  0  0
 40 77  1  0  0  0  0
 41 42  1  0  0  0  0
 41 43  1  0  0  0  0
 42 78  1  0  0  0  0
 42 79  1  0  0  0  0
 42 80  1  0  0  0  0
 43 44  1  0  0  0  0
 43 81  1  0  0  0  0
 43 82  1  0  0  0  0
 44 83  1  0  0  0  0
 44 84  1  0  0  0  0
M  END
$$$$
