CHEBI:16545
 OpenBabel04242414433D

 15 15  0  0  0  0  0  0  0  0999 V2000
   -2.1256   -0.2469    0.1862 O   0  0  0  0  0  0  0  0  0  0  0  0
   -0.9341   -0.1044   -0.0588 C   0  0  0  0  0  0  0  0  0  0  0  0
   -0.0561   -1.2365   -0.5250 C   0  0  0  0  0  0  0  0  0  0  0  0
    1.2684   -1.2558    0.2224 C   0  0  0  0  0  0  0  0  0  0  0  0
    1.8647    0.1374    0.4003 C   0  0  0  0  0  0  0  0  0  0  0  0
    1.0626    1.1883   -0.3460 C   0  0  0  0  0  0  0  0  0  0  0  0
   -0.3241    1.1073    0.0150 O   0  0  0  0  0  0  0  0  0  0  0  0
    0.0966   -1.1300   -1.6048 H   0  0  0  0  0  0  0  0  0  0  0  0
   -0.5805   -2.1845   -0.3615 H   0  0  0  0  0  0  0  0  0  0  0  0
    1.9760   -1.9005   -0.3122 H   0  0  0  0  0  0  0  0  0  0  0  0
    1.1282   -1.7107    1.2109 H   0  0  0  0  0  0  0  0  0  0  0  0
    2.9126    0.1538    0.0822 H   0  0  0  0  0  0  0  0  0  0  0  0
    1.8538    0.3793    1.4707 H   0  0  0  0  0  0  0  0  0  0  0  0
    1.1577    1.0853   -1.4332 H   0  0  0  0  0  0  0  0  0  0  0  0
    1.4166    2.1892   -0.0791 H   0  0  0  0  0  0  0  0  0  0  0  0
  1  2  2  0  0  0  0
  2  3  1  0  0  0  0
  2  7  1  0  0  0  0
  3  4  1  0  0  0  0
  3  8  1  0  0  0  0
  3  9  1  0  0  0  0
  4  5  1  0  0  0  0
  4 10  1  0  0  0  0
  4 11  1  0  0  0  0
  5  6  1  0  0  0  0
  5 12  1  0  0  0  0
  5 13  1  0  0  0  0
  6  7  1  0  0  0  0
  6 14  1  0  0  0  0
  6 15  1  0  0  0  0
M  END
$$$$
