CHEBI:15716
 OpenBabel04242413093D

 45 50  0  0  0  0  0  0  0  0999 V2000
    2.8742   -0.3763    1.8585 C   0  0  0  0  0  0  0  0  0  0  0  0
    3.2718   -0.1497    0.5113 O   0  0  0  0  0  0  0  0  0  0  0  0
    3.6972    1.1121    0.1738 C   0  0  0  0  0  0  0  0  0  0  0  0
    3.3811    2.2308    0.9652 C   0  0  0  0  0  0  0  0  0  0  0  0
    3.8790    3.4591    0.5968 C   0  0  0  0  0  0  0  0  0  0  0  0
    4.6625    3.6155   -0.5145 C   0  0  0  0  0  0  0  0  0  0  0  0
    4.9860    2.5443   -1.3276 C   0  0  0  0  0  0  0  0  0  0  0  0
    4.4780    1.2552   -1.0171 C   0  0  0  0  0  0  0  0  0  0  0  0
    4.8564    0.1537   -1.9590 C   0  0  0  0  0  0  0  0  0  0  0  0
    4.1676   -1.0647   -2.0434 C   0  0  0  0  0  0  0  0  0  0  0  0
    4.5796   -2.0803   -2.9104 C   0  0  0  0  0  0  0  0  0  0  0  0
    3.8915   -3.2693   -2.9172 O   0  0  0  0  0  0  0  0  0  0  0  0
    5.6639   -1.9152   -3.7830 C   0  0  0  0  0  0  0  0  0  0  0  0
    6.0555   -2.9376   -4.6768 C   0  0  0  0  0  0  0  0  0  0  0  0
    7.0952   -2.7014   -5.5462 C   0  0  0  0  0  0  0  0  0  0  0  0
    7.7547   -1.5023   -5.5601 C   0  0  0  0  0  0  0  0  0  0  0  0
    7.4156   -0.4842   -4.6964 C   0  0  0  0  0  0  0  0  0  0  0  0
    6.3615   -0.6732   -3.7693 C   0  0  0  0  0  0  0  0  0  0  0  0
    5.9607    0.3436   -2.8440 C   0  0  0  0  0  0  0  0  0  0  0  0
    6.6964    1.5737   -2.8135 N   0  0  0  0  0  0  0  0  0  0  0  0
    7.8639    1.4608   -1.9299 C   0  0  0  0  0  0  0  0  0  0  0  0
    5.8294    2.7320   -2.5551 C   0  0  0  0  0  0  0  0  0  0  0  0
    8.7355   -1.4575   -6.5007 O   0  0  0  0  0  0  0  0  0  0  0  0
    8.6014   -2.7668   -7.0906 C   0  0  0  0  0  0  0  0  0  0  0  0
    7.5760   -3.5715   -6.4734 O   0  0  0  0  0  0  0  0  0  0  0  0
    5.0568    4.9073   -0.6855 O   0  0  0  0  0  0  0  0  0  0  0  0
    4.4500    5.5373    0.4611 C   0  0  0  0  0  0  0  0  0  0  0  0
    3.6767    4.6256    1.2660 O   0  0  0  0  0  0  0  0  0  0  0  0
    1.9101    0.0978    2.0676 H   0  0  0  0  0  0  0  0  0  0  0  0
    3.6434   -0.0439    2.5635 H   0  0  0  0  0  0  0  0  0  0  0  0
    2.7460   -1.4551    1.9892 H   0  0  0  0  0  0  0  0  0  0  0  0
    2.7629    2.1690    1.8516 H   0  0  0  0  0  0  0  0  0  0  0  0
    3.2835   -1.2354   -1.4411 H   0  0  0  0  0  0  0  0  0  0  0  0
    3.2213   -3.2469   -2.2149 H   0  0  0  0  0  0  0  0  0  0  0  0
    5.5407   -3.8932   -4.6968 H   0  0  0  0  0  0  0  0  0  0  0  0
    7.9519    0.4583   -4.7465 H   0  0  0  0  0  0  0  0  0  0  0  0
    8.5264    0.6451   -2.2398 H   0  0  0  0  0  0  0  0  0  0  0  0
    7.5778    1.2943   -0.8851 H   0  0  0  0  0  0  0  0  0  0  0  0
    8.4535    2.3830   -1.9774 H   0  0  0  0  0  0  0  0  0  0  0  0
    5.1718    2.8978   -3.4185 H   0  0  0  0  0  0  0  0  0  0  0  0
    6.4576    3.6266   -2.4660 H   0  0  0  0  0  0  0  0  0  0  0  0
    9.5600   -3.2908   -7.0025 H   0  0  0  0  0  0  0  0  0  0  0  0
    8.3618   -2.6495   -8.1540 H   0  0  0  0  0  0  0  0  0  0  0  0
    3.7951    6.3442    0.1136 H   0  0  0  0  0  0  0  0  0  0  0  0
    5.2420    5.9698    1.0838 H   0  0  0  0  0  0  0  0  0  0  0  0
  1  2  1  0  0  0  0
  1 29  1  0  0  0  0
  1 30  1  0  0  0  0
  1 31  1  0  0  0  0
  2  3  1  0  0  0  0
  3  4  1  0  0  0  0
  3  8  2  0  0  0  0
  4  5  2  0  0  0  0
  4 32  1  0  0  0  0
  5  6  1  0  0  0  0
  5 28  1  0  0  0  0
  6  7  2  0  0  0  0
  6 26  1  0  0  0  0
  7  8  1  0  0  0  0
  7 22  1  0  0  0  0
  8  9  1  0  0  0  0
  9 10  1  0  0  0  0
  9 19  2  0  0  0  0
 10 11  2  0  0  0  0
 10 33  1  0  0  0  0
 11 12  1  0  0  0  0
 11 13  1  0  0  0  0
 12 34  1  0  0  0  0
 13 14  1  0  0  0  0
 13 18  2  0  0  0  0
 14 15  2  0  0  0  0
 14 35  1  0  0  0  0
 15 16  1  0  0  0  0
 15 25  1  0  0  0  0
 16 17  2  0  0  0  0
 16 23  1  0  0  0  0
 17 18  1  0  0  0  0
 17 36  1  0  0  0  0
 18 19  1  0  0  0  0
 19 20  1  0  0  0  0
 20 21  1  0  0  0  0
 20 22  1  0  0  0  0
 21 37  1  0  0  0  0
 21 38  1  0  0  0  0
 21 39  1  0  0  0  0
 22 40  1  0  0  0  0
 22 41  1  0  0  0  0
 23 24  1  0  0  0  0
 24 25  1  0  0  0  0
 24 42  1  0  0  0  0
 24 43  1  0  0  0  0
 26 27  1  0  0  0  0
 27 28  1  0  0  0  0
 27 44  1  0  0  0  0
 27 45  1  0  0  0  0
M  END
$$$$
