CHEBI:17737
 OpenBabel04242417123D

 72 75  0  0  1  0  0  0  0  0999 V2000
    2.5467    0.5049   -1.9249 C   0  0  0  0  0  0  0  0  0  0  0  0
    4.0488    0.4445   -2.0119 C   0  0  0  0  0  0  0  0  0  0  0  0
    4.6845   -0.5686   -1.1000 C   0  0  0  0  0  0  0  0  0  0  0  0
    4.7245    1.2578   -2.8470 C   0  0  0  0  0  0  0  0  0  0  0  0
    6.2073    1.2679   -3.1010 C   0  0  0  0  0  0  0  0  0  0  0  0
    6.9382    2.2633   -2.1939 C   0  0  0  0  0  0  0  0  0  0  0  0
    8.4713    2.3553   -2.4279 C   0  0  1  0  0  0  0  0  0  0  0  0
    9.1192    0.9912   -2.1703 C   0  0  0  0  0  0  0  0  0  0  0  0
    8.8310    2.9558   -3.8167 C   0  0  1  0  0  0  0  0  0  0  0  0
    8.2169    4.3740   -4.0038 C   0  0  0  0  0  0  0  0  0  0  0  0
    9.1837    5.1801   -4.8791 C   0  0  0  0  0  0  0  0  0  0  0  0
   10.1760    4.1436   -5.3817 C   0  0  1  0  0  0  0  0  0  0  0  0
   11.5151    4.6478   -5.9287 C   0  0  2  0  0  0  0  0  0  0  0  0
   11.3117    5.6150   -7.1050 C   0  0  0  0  0  0  0  0  0  0  0  0
   12.5807    5.9086   -7.8438 C   0  0  0  0  0  0  0  0  0  0  0  0
   13.7154    5.1935   -7.7270 C   0  0  0  0  0  0  0  0  0  0  0  0
   14.9567    5.6057   -8.4889 C   0  0  0  0  0  0  0  0  0  0  0  0
   15.5828    4.4414   -9.2596 C   0  0  1  0  0  0  0  0  0  0  0  0
   16.8379    4.8407   -9.8091 O   0  0  0  0  0  0  0  0  0  0  0  0
   15.7916    3.2199   -8.3681 C   0  0  0  0  0  0  0  0  0  0  0  0
   14.4939    2.8041   -7.6750 C   0  0  0  0  0  0  0  0  0  0  0  0
   13.8251    3.9390   -6.8455 C   0  0  1  0  0  0  0  0  0  0  0  0
   14.7197    4.2807   -5.6281 C   0  0  0  0  0  0  0  0  0  0  0  0
   12.3931    3.4481   -6.3835 C   0  0  1  0  0  0  0  0  0  0  0  0
   12.4243    2.2884   -5.3530 C   0  0  0  0  0  0  0  0  0  0  0  0
   11.0534    1.9299   -4.7543 C   0  0  0  0  0  0  0  0  0  0  0  0
   10.3315    3.1669   -4.1901 C   0  0  2  0  0  0  0  0  0  0  0  0
   11.1227    3.7655   -3.0017 C   0  0  0  0  0  0  0  0  0  0  0  0
    2.2326    0.7586   -0.9075 H   0  0  0  0  0  0  0  0  0  0  0  0
    2.1155   -0.4660   -2.1911 H   0  0  0  0  0  0  0  0  0  0  0  0
    2.1209    1.2527   -2.6023 H   0  0  0  0  0  0  0  0  0  0  0  0
    4.3661   -0.3933   -0.0665 H   0  0  0  0  0  0  0  0  0  0  0  0
    5.7767   -0.5305   -1.1065 H   0  0  0  0  0  0  0  0  0  0  0  0
    4.3809   -1.5802   -1.3875 H   0  0  0  0  0  0  0  0  0  0  0  0
    4.1631    1.9754   -3.4449 H   0  0  0  0  0  0  0  0  0  0  0  0
    6.3571    1.5308   -4.1540 H   0  0  0  0  0  0  0  0  0  0  0  0
    6.6167    0.2596   -2.9851 H   0  0  0  0  0  0  0  0  0  0  0  0
    6.7698    1.9778   -1.1462 H   0  0  0  0  0  0  0  0  0  0  0  0
    6.4862    3.2570   -2.2994 H   0  0  0  0  0  0  0  0  0  0  0  0
    8.8480    3.0379   -1.6542 H   0  0  0  0  0  0  0  0  0  0  0  0
    8.9485    0.2984   -2.9999 H   0  0  0  0  0  0  0  0  0  0  0  0
    8.7191    0.5359   -1.2574 H   0  0  0  0  0  0  0  0  0  0  0  0
   10.1973    1.0816   -2.0206 H   0  0  0  0  0  0  0  0  0  0  0  0
    8.3947    2.3067   -4.5886 H   0  0  0  0  0  0  0  0  0  0  0  0
    8.0778    4.8928   -3.0484 H   0  0  0  0  0  0  0  0  0  0  0  0
    7.2338    4.2982   -4.4821 H   0  0  0  0  0  0  0  0  0  0  0  0
    9.6802    5.9557   -4.2851 H   0  0  0  0  0  0  0  0  0  0  0  0
    8.6572    5.6800   -5.6985 H   0  0  0  0  0  0  0  0  0  0  0  0
    9.6729    3.6096   -6.2052 H   0  0  0  0  0  0  0  0  0  0  0  0
   12.0335    5.2041   -5.1399 H   0  0  0  0  0  0  0  0  0  0  0  0
   10.9003    6.5591   -6.7284 H   0  0  0  0  0  0  0  0  0  0  0  0
   10.5838    5.2115   -7.8195 H   0  0  0  0  0  0  0  0  0  0  0  0
   12.5507    6.7746   -8.5023 H   0  0  0  0  0  0  0  0  0  0  0  0
   15.6898    6.0267   -7.7891 H   0  0  0  0  0  0  0  0  0  0  0  0
   14.7454    6.4197   -9.1944 H   0  0  0  0  0  0  0  0  0  0  0  0
   14.9341    4.1707  -10.1010 H   0  0  0  0  0  0  0  0  0  0  0  0
   17.4280    5.0703   -9.0708 H   0  0  0  0  0  0  0  0  0  0  0  0
   16.5762    3.4189   -7.6277 H   0  0  0  0  0  0  0  0  0  0  0  0
   16.1718    2.3880   -8.9738 H   0  0  0  0  0  0  0  0  0  0  0  0
   14.7088    1.9397   -7.0355 H   0  0  0  0  0  0  0  0  0  0  0  0
   13.7954    2.4520   -8.4465 H   0  0  0  0  0  0  0  0  0  0  0  0
   15.6689    4.7409   -5.9211 H   0  0  0  0  0  0  0  0  0  0  0  0
   14.9838    3.3847   -5.0571 H   0  0  0  0  0  0  0  0  0  0  0  0
   14.2293    4.9821   -4.9457 H   0  0  0  0  0  0  0  0  0  0  0  0
   11.8924    3.0301   -7.2723 H   0  0  0  0  0  0  0  0  0  0  0  0
   13.0994    2.5215   -4.5255 H   0  0  0  0  0  0  0  0  0  0  0  0
   12.8302    1.3888   -5.8306 H   0  0  0  0  0  0  0  0  0  0  0  0
   11.2017    1.1687   -3.9833 H   0  0  0  0  0  0  0  0  0  0  0  0
   10.4412    1.4597   -5.5352 H   0  0  0  0  0  0  0  0  0  0  0  0
   11.2678    3.0245   -2.2101 H   0  0  0  0  0  0  0  0  0  0  0  0
   10.6105    4.6225   -2.5530 H   0  0  0  0  0  0  0  0  0  0  0  0
   12.1214    4.1078   -3.2847 H   0  0  0  0  0  0  0  0  0  0  0  0
  1  2  1  0  0  0  0
  1 29  1  0  0  0  0
  1 30  1  0  0  0  0
  1 31  1  0  0  0  0
  2  3  1  0  0  0  0
  2  4  2  0  0  0  0
  3 32  1  0  0  0  0
  3 33  1  0  0  0  0
  3 34  1  0  0  0  0
  4  5  1  0  0  0  0
  4 35  1  0  0  0  0
  5  6  1  0  0  0  0
  5 36  1  0  0  0  0
  5 37  1  0  0  0  0
  6  7  1  0  0  0  0
  6 38  1  0  0  0  0
  6 39  1  0  0  0  0
  7  8  1  0  0  0  0
  7  9  1  0  0  0  0
  7 40  1  1  0  0  0
  8 41  1  0  0  0  0
  8 42  1  0  0  0  0
  8 43  1  0  0  0  0
  9 10  1  0  0  0  0
  9 27  1  0  0  0  0
  9 44  1  6  0  0  0
 10 11  1  0  0  0  0
 10 45  1  0  0  0  0
 10 46  1  0  0  0  0
 11 12  1  0  0  0  0
 11 47  1  0  0  0  0
 11 48  1  0  0  0  0
 12 13  1  0  0  0  0
 12 27  1  0  0  0  0
 12 49  1  6  0  0  0
 13 14  1  0  0  0  0
 13 24  1  0  0  0  0
 13 50  1  1  0  0  0
 14 15  1  0  0  0  0
 14 51  1  0  0  0  0
 14 52  1  0  0  0  0
 15 16  2  0  0  0  0
 15 53  1  0  0  0  0
 16 17  1  0  0  0  0
 16 22  1  0  0  0  0
 17 18  1  0  0  0  0
 17 54  1  0  0  0  0
 17 55  1  0  0  0  0
 18 19  1  0  0  0  0
 18 20  1  0  0  0  0
 18 56  1  6  0  0  0
 19 57  1  0  0  0  0
 20 21  1  0  0  0  0
 20 58  1  0  0  0  0
 20 59  1  0  0  0  0
 21 22  1  0  0  0  0
 21 60  1  0  0  0  0
 21 61  1  0  0  0  0
 22 23  1  1  0  0  0
 22 24  1  0  0  0  0
 23 62  1  0  0  0  0
 23 63  1  0  0  0  0
 23 64  1  0  0  0  0
 24 25  1  0  0  0  0
 24 65  1  6  0  0  0
 25 26  1  0  0  0  0
 25 66  1  0  0  0  0
 25 67  1  0  0  0  0
 26 27  1  0  0  0  0
 26 68  1  0  0  0  0
 26 69  1  0  0  0  0
 27 28  1  1  0  0  0
 28 70  1  0  0  0  0
 28 71  1  0  0  0  0
 28 72  1  0  0  0  0
M  END
$$$$
