CHEBI:27449
 OpenBabel04252410023D

 17 17  0  0  0  0  0  0  0  0999 V2000
    2.5071    0.8955    0.4861 C   0  0  0  0  0  0  0  0  0  0  0  0
    3.7792    0.1329    0.8202 C   0  0  0  0  0  0  0  0  0  0  0  0
    4.3545   -0.5494   -0.3977 C   0  0  0  0  0  0  0  0  0  0  0  0
    3.8710   -0.5431   -1.5221 O   0  0  0  0  0  0  0  0  0  0  0  0
    5.5500   -1.2458   -0.1758 N   0  0  0  0  0  0  0  0  0  0  0  0
    6.2768   -1.3967    0.9890 C   0  0  0  0  0  0  0  0  0  0  0  0
    7.3671   -2.1665    0.6588 C   0  0  0  0  0  0  0  0  0  0  0  0
    7.3412   -2.5006   -0.6646 N   0  0  0  0  0  0  0  0  0  0  0  0
    6.2501   -1.9416   -1.1384 C   0  0  0  0  0  0  0  0  0  0  0  0
    2.1008    1.3708    1.3842 H   0  0  0  0  0  0  0  0  0  0  0  0
    1.7424    0.2272    0.0764 H   0  0  0  0  0  0  0  0  0  0  0  0
    2.7020    1.6768   -0.2562 H   0  0  0  0  0  0  0  0  0  0  0  0
    3.5503   -0.6230    1.5793 H   0  0  0  0  0  0  0  0  0  0  0  0
    4.5151    0.8378    1.2218 H   0  0  0  0  0  0  0  0  0  0  0  0
    5.9764   -0.9606    1.9303 H   0  0  0  0  0  0  0  0  0  0  0  0
    8.1691   -2.4974    1.3070 H   0  0  0  0  0  0  0  0  0  0  0  0
    5.9059   -1.9977   -2.1640 H   0  0  0  0  0  0  0  0  0  0  0  0
  1  2  1  0  0  0  0
  1 10  1  0  0  0  0
  1 11  1  0  0  0  0
  1 12  1  0  0  0  0
  2  3  1  0  0  0  0
  2 13  1  0  0  0  0
  2 14  1  0  0  0  0
  3  4  2  0  0  0  0
  3  5  1  0  0  0  0
  5  6  1  0  0  0  0
  5  9  1  0  0  0  0
  6  7  2  0  0  0  0
  6 15  1  0  0  0  0
  7  8  1  0  0  0  0
  7 16  1  0  0  0  0
  8  9  2  0  0  0  0
  9 17  1  0  0  0  0
M  END
$$$$
