CHEBI:15347
 OpenBabel04242411443D

 10  9  0  0  0  0  0  0  0  0999 V2000
    0.9863   -0.0594   -0.0697 C   0  0  0  0  0  0  0  0  0  0  0  0
    2.4912   -0.0438   -0.0858 C   0  0  0  0  0  0  0  0  0  0  0  0
    3.2243   -0.9581    0.8586 C   0  0  0  0  0  0  0  0  0  0  0  0
    3.1071    0.6982   -0.8522 O   0  0  0  0  0  0  0  0  0  0  0  0
    0.6063   -0.7719    0.6663 H   0  0  0  0  0  0  0  0  0  0  0  0
    0.6199   -0.3511   -1.0572 H   0  0  0  0  0  0  0  0  0  0  0  0
    0.6199    0.9371    0.1899 H   0  0  0  0  0  0  0  0  0  0  0  0
    2.5272   -1.5433    1.4630 H   0  0  0  0  0  0  0  0  0  0  0  0
    3.8462   -0.3586    1.5282 H   0  0  0  0  0  0  0  0  0  0  0  0
    3.8462   -1.6467    0.2811 H   0  0  0  0  0  0  0  0  0  0  0  0
  1  2  1  0  0  0  0
  1  5  1  0  0  0  0
  1  6  1  0  0  0  0
  1  7  1  0  0  0  0
  2  3  1  0  0  0  0
  2  4  2  0  0  0  0
  3  8  1  0  0  0  0
  3  9  1  0  0  0  0
  3 10  1  0  0  0  0
M  END
$$$$
