CHEBI:15551
 OpenBabel04242412463D

 57 57  0  0  1  0  0  0  0  0999 V2000
   13.6752    5.6042   -1.8982 C   0  0  0  0  0  0  0  0  0  0  0  0
   15.0758    5.4293   -2.4559 C   0  0  0  0  0  0  0  0  0  0  0  0
   16.2157    5.9053   -1.5575 C   0  0  0  0  0  0  0  0  0  0  0  0
   16.2302    7.3903   -1.1742 C   0  0  0  0  0  0  0  0  0  0  0  0
   16.8890    8.3790   -2.1539 C   0  0  0  0  0  0  0  0  0  0  0  0
   16.1734    8.7179   -3.4750 C   0  0  2  0  0  0  0  0  0  0  0  0
   14.7710    8.7666   -3.2623 O   0  0  0  0  0  0  0  0  0  0  0  0
   16.5428    7.7624   -4.5837 C   0  0  0  0  0  0  0  0  0  0  0  0
   15.6988    7.1142   -5.4072 C   0  0  0  0  0  0  0  0  0  0  0  0
   16.0253    5.9268   -6.2937 C   0  0  1  0  0  0  0  0  0  0  0  0
   16.3199    6.3683   -7.7352 C   0  0  2  0  0  0  0  0  0  0  0  0
   15.9471    5.3799   -8.6874 O   0  0  0  0  0  0  0  0  0  0  0  0
   17.8264    6.5636   -7.8112 C   0  0  0  0  0  0  0  0  0  0  0  0
   18.3356    5.6230   -6.7537 C   0  0  0  0  0  0  0  0  0  0  0  0
   19.5311    5.3988   -6.5892 O   0  0  0  0  0  0  0  0  0  0  0  0
   17.2453    5.0775   -5.8528 C   0  0  2  0  0  0  0  0  0  0  0  0
   16.9983    3.5677   -6.0037 C   0  0  0  0  0  0  0  0  0  0  0  0
   18.2324    2.7328   -5.8221 C   0  0  0  0  0  0  0  0  0  0  0  0
   18.6123    1.6575   -6.5321 C   0  0  0  0  0  0  0  0  0  0  0  0
   17.8476    0.8863   -7.5726 C   0  0  0  0  0  0  0  0  0  0  0  0
   18.0151    1.3442   -9.0273 C   0  0  0  0  0  0  0  0  0  0  0  0
   17.0504    2.4353   -9.4866 C   0  0  0  0  0  0  0  0  0  0  0  0
   15.5932    2.1303   -9.2334 C   0  0  0  0  0  0  0  0  0  0  0  0
   14.8028    2.8175   -8.6065 O   0  0  0  0  0  0  0  0  0  0  0  0
   15.1836    0.9904   -9.8219 O   0  0  0  0  0  0  0  0  0  0  0  0
   12.9414    5.3857   -2.6826 H   0  0  0  0  0  0  0  0  0  0  0  0
   13.4874    6.6249   -1.5574 H   0  0  0  0  0  0  0  0  0  0  0  0
   13.4969    4.9158   -1.0683 H   0  0  0  0  0  0  0  0  0  0  0  0
   15.1132    5.9468   -3.4020 H   0  0  0  0  0  0  0  0  0  0  0  0
   15.2313    4.3698   -2.6925 H   0  0  0  0  0  0  0  0  0  0  0  0
   17.1731    5.6445   -2.0255 H   0  0  0  0  0  0  0  0  0  0  0  0
   16.1623    5.3198   -0.6302 H   0  0  0  0  0  0  0  0  0  0  0  0
   16.8257    7.4553   -0.2517 H   0  0  0  0  0  0  0  0  0  0  0  0
   15.2340    7.7417   -0.8915 H   0  0  0  0  0  0  0  0  0  0  0  0
   17.9253    8.0725   -2.3470 H   0  0  0  0  0  0  0  0  0  0  0  0
   16.9688    9.3255   -1.5996 H   0  0  0  0  0  0  0  0  0  0  0  0
   16.4949    9.7198   -3.7852 H   0  0  0  0  0  0  0  0  0  0  0  0
   14.3706    9.1256   -4.0703 H   0  0  0  0  0  0  0  0  0  0  0  0
   17.6102    7.5559   -4.6416 H   0  0  0  0  0  0  0  0  0  0  0  0
   14.6321    7.3310   -5.3459 H   0  0  0  0  0  0  0  0  0  0  0  0
   15.1318    5.2882   -6.2664 H   0  0  0  0  0  0  0  0  0  0  0  0
   15.7924    7.2867   -8.0135 H   0  0  0  0  0  0  0  0  0  0  0  0
   15.1100    4.9502   -8.4206 H   0  0  0  0  0  0  0  0  0  0  0  0
   18.1125    7.5796   -7.5249 H   0  0  0  0  0  0  0  0  0  0  0  0
   18.2444    6.2937   -8.7841 H   0  0  0  0  0  0  0  0  0  0  0  0
   17.5233    5.2787   -4.8117 H   0  0  0  0  0  0  0  0  0  0  0  0
   16.5490    3.3638   -6.9696 H   0  0  0  0  0  0  0  0  0  0  0  0
   16.2620    3.2621   -5.2494 H   0  0  0  0  0  0  0  0  0  0  0  0
   18.9147    3.0757   -5.0424 H   0  0  0  0  0  0  0  0  0  0  0  0
   19.5774    1.2209   -6.2693 H   0  0  0  0  0  0  0  0  0  0  0  0
   16.7936    0.8008   -7.2905 H   0  0  0  0  0  0  0  0  0  0  0  0
   18.2363   -0.1411   -7.5197 H   0  0  0  0  0  0  0  0  0  0  0  0
   17.8720    0.4714   -9.6767 H   0  0  0  0  0  0  0  0  0  0  0  0
   19.0428    1.6888   -9.1994 H   0  0  0  0  0  0  0  0  0  0  0  0
   17.1632    2.6096  -10.5629 H   0  0  0  0  0  0  0  0  0  0  0  0
   17.3119    3.3753   -8.9991 H   0  0  0  0  0  0  0  0  0  0  0  0
   14.2290    0.9378   -9.6056 H   0  0  0  0  0  0  0  0  0  0  0  0
  1  2  1  0  0  0  0
  1 26  1  0  0  0  0
  1 27  1  0  0  0  0
  1 28  1  0  0  0  0
  2  3  1  0  0  0  0
  2 29  1  0  0  0  0
  2 30  1  0  0  0  0
  3  4  1  0  0  0  0
  3 31  1  0  0  0  0
  3 32  1  0  0  0  0
  4  5  1  0  0  0  0
  4 33  1  0  0  0  0
  4 34  1  0  0  0  0
  5 35  1  0  0  0  0
  5 36  1  0  0  0  0
  6  8  1  0  0  0  0
  6  7  1  0  0  0  0
  6  5  1  0  0  0  0
  6 37  1  6  0  0  0
  7 38  1  0  0  0  0
  8  9  2  0  0  0  0
  8 39  1  0  0  0  0
  9 40  1  0  0  0  0
 10 11  1  0  0  0  0
 10 16  1  0  0  0  0
 10  9  1  0  0  0  0
 10 41  1  6  0  0  0
 11 13  1  0  0  0  0
 11 12  1  0  0  0  0
 11 42  1  6  0  0  0
 12 43  1  0  0  0  0
 13 14  1  0  0  0  0
 13 44  1  0  0  0  0
 13 45  1  0  0  0  0
 14 15  2  0  0  0  0
 14 16  1  0  0  0  0
 16 17  1  0  0  0  0
 16 46  1  1  0  0  0
 17 18  1  0  0  0  0
 17 47  1  0  0  0  0
 17 48  1  0  0  0  0
 18 19  2  0  0  0  0
 18 49  1  0  0  0  0
 19 20  1  0  0  0  0
 19 50  1  0  0  0  0
 20 21  1  0  0  0  0
 20 51  1  0  0  0  0
 20 52  1  0  0  0  0
 21 22  1  0  0  0  0
 21 53  1  0  0  0  0
 21 54  1  0  0  0  0
 22 23  1  0  0  0  0
 22 55  1  0  0  0  0
 22 56  1  0  0  0  0
 23 24  2  0  0  0  0
 23 25  1  0  0  0  0
 25 57  1  0  0  0  0
M  END
$$$$
