CHEBI:18132
 OpenBabel04242423353D

 26 25  0  0  0  0  0  0  0  0999 V2000
    0.0892   -0.4331   -0.7975 C   0  0  0  0  0  0  0  0  0  0  0  0
    1.1877   -1.1887   -0.0637 N   0  3  0  0  0  0  0  0  0  0  0  0
    0.7389   -1.4203    1.3809 C   0  0  0  0  0  0  0  0  0  0  0  0
    1.3899   -2.5523   -0.7219 C   0  0  0  0  0  0  0  0  0  0  0  0
    2.5091   -0.3745   -0.0181 C   0  0  0  0  0  0  0  0  0  0  0  0
    3.1086   -0.0214   -1.3844 C   0  0  0  0  0  0  0  0  0  0  0  0
    3.5595   -1.1927   -2.0415 O   0  0  0  0  0  0  0  0  0  0  0  0
    4.1114   -1.0496   -3.5386 P   0  0  0  0  0  0  0  0  0  0  0  0
    4.5233   -2.3198   -4.1884 O   0  0  0  0  0  0  0  0  0  0  0  0
    2.9742   -0.2705   -4.3388 O   0  0  0  0  0  0  0  0  0  0  0  0
    5.2872    0.0189   -3.4425 O   0  0  0  0  0  0  0  0  0  0  0  0
   -0.8441   -0.9953   -0.6952 H   0  0  0  0  0  0  0  0  0  0  0  0
    0.3560   -0.3524   -1.8541 H   0  0  0  0  0  0  0  0  0  0  0  0
   -0.0102    0.5577   -0.3453 H   0  0  0  0  0  0  0  0  0  0  0  0
   -0.1959   -1.9889    1.3702 H   0  0  0  0  0  0  0  0  0  0  0  0
    0.5849   -0.4463    1.8550 H   0  0  0  0  0  0  0  0  0  0  0  0
    1.5213   -1.9820    1.8999 H   0  0  0  0  0  0  0  0  0  0  0  0
    0.4972   -3.1579   -0.5357 H   0  0  0  0  0  0  0  0  0  0  0  0
    2.2688   -3.0271   -0.2770 H   0  0  0  0  0  0  0  0  0  0  0  0
    1.5084   -2.4171   -1.7991 H   0  0  0  0  0  0  0  0  0  0  0  0
    3.2181   -0.9789    0.5597 H   0  0  0  0  0  0  0  0  0  0  0  0
    2.2866    0.5442    0.5366 H   0  0  0  0  0  0  0  0  0  0  0  0
    3.9696    0.6365   -1.2256 H   0  0  0  0  0  0  0  0  0  0  0  0
    2.3884    0.5168   -2.0059 H   0  0  0  0  0  0  0  0  0  0  0  0
    3.1222   -0.3312   -5.3029 H   0  0  0  0  0  0  0  0  0  0  0  0
    6.1486   -0.3852   -3.6689 H   0  0  0  0  0  0  0  0  0  0  0  0
  1  2  1  0  0  0  0
  1 12  1  0  0  0  0
  1 13  1  0  0  0  0
  1 14  1  0  0  0  0
  2  3  1  0  0  0  0
  2  4  1  0  0  0  0
  2  5  1  0  0  0  0
  3 15  1  0  0  0  0
  3 16  1  0  0  0  0
  3 17  1  0  0  0  0
  4 18  1  0  0  0  0
  4 19  1  0  0  0  0
  4 20  1  0  0  0  0
  5  6  1  0  0  0  0
  5 21  1  0  0  0  0
  5 22  1  0  0  0  0
  6  7  1  0  0  0  0
  6 23  1  0  0  0  0
  6 24  1  0  0  0  0
  7  8  1  0  0  0  0
  8  9  2  0  0  0  0
  8 10  1  0  0  0  0
  8 11  1  0  0  0  0
 10 25  1  0  0  0  0
 11 26  1  0  0  0  0
M  CHG  1   2   1
M  END
$$$$
