CHEBI:6716
 OpenBabel04242411073D

 62 65  0  0  1  0  0  0  0  0999 V2000
    8.0340    3.0176   -0.4830 C   0  0  0  0  0  0  0  0  0  0  0  0
    6.5649    2.7277   -0.5247 C   0  0  0  0  0  0  0  0  0  0  0  0
    5.8293    2.7392    0.4476 O   0  0  0  0  0  0  0  0  0  0  0  0
    6.1870    2.4280   -1.7962 O   0  0  0  0  0  0  0  0  0  0  0  0
    4.8451    1.9336   -2.0224 C   0  0  2  0  0  0  0  0  0  0  0  0
    3.7230    2.8253   -1.4151 C   0  0  0  0  0  0  0  0  0  0  0  0
    3.7898    4.3117   -1.6656 C   0  0  0  0  0  0  0  0  0  0  0  0
    2.7319    2.3486   -0.8550 O   0  0  0  0  0  0  0  0  0  0  0  0
    4.7816    0.4624   -1.4939 C   0  0  0  0  0  0  0  0  0  0  0  0
    5.0379   -0.4688   -2.6923 C   0  0  0  0  0  0  0  0  0  0  0  0
    5.5023    0.4591   -3.8041 C   0  0  1  0  0  0  0  0  0  0  0  0
    5.4333   -0.0448   -5.2523 C   0  0  2  0  0  0  0  0  0  0  0  0
    6.1269   -1.4053   -5.4302 C   0  0  0  0  0  0  0  0  0  0  0  0
    6.0913   -1.8718   -6.8968 C   0  0  2  0  0  0  0  0  0  0  0  0
    6.6723   -3.2876   -6.9973 C   0  0  0  0  0  0  0  0  0  0  0  0
    6.7706   -0.7922   -7.7347 C   0  0  0  0  0  0  0  0  0  0  0  0
    7.9414   -1.0087   -8.3649 C   0  0  0  0  0  0  0  0  0  0  0  0
    8.7345    0.1036   -8.9368 C   0  0  0  0  0  0  0  0  0  0  0  0
    9.7402   -0.1409   -9.5969 O   0  0  0  0  0  0  0  0  0  0  0  0
    8.3265    1.5015   -8.5621 C   0  0  0  0  0  0  0  0  0  0  0  0
    6.8135    1.6012   -8.6235 C   0  0  0  0  0  0  0  0  0  0  0  0
    6.0734    0.5878   -7.6964 C   0  0  1  0  0  0  0  0  0  0  0  0
    4.6412    0.4790   -8.2826 C   0  0  0  0  0  0  0  0  0  0  0  0
    6.0436    1.0510   -6.1918 C   0  0  1  0  0  0  0  0  0  0  0  0
    5.3491    2.4199   -5.9558 C   0  0  0  0  0  0  0  0  0  0  0  0
    5.2824    2.8376   -4.4735 C   0  0  0  0  0  0  0  0  0  0  0  0
    4.6665    1.7444   -3.5764 C   0  0  2  0  0  0  0  0  0  0  0  0
    3.1648    1.5615   -3.9380 C   0  0  0  0  0  0  0  0  0  0  0  0
    8.5922    2.1059   -0.7111 H   0  0  0  0  0  0  0  0  0  0  0  0
    8.3082    3.3572    0.5198 H   0  0  0  0  0  0  0  0  0  0  0  0
    8.2813    3.8083   -1.1954 H   0  0  0  0  0  0  0  0  0  0  0  0
    3.2355    4.8327   -0.8794 H   0  0  0  0  0  0  0  0  0  0  0  0
    3.3358    4.5396   -2.6323 H   0  0  0  0  0  0  0  0  0  0  0  0
    4.8199    4.6701   -1.6481 H   0  0  0  0  0  0  0  0  0  0  0  0
    3.8140    0.2052   -1.0516 H   0  0  0  0  0  0  0  0  0  0  0  0
    5.5418    0.2752   -0.7272 H   0  0  0  0  0  0  0  0  0  0  0  0
    4.1196   -0.9994   -2.9667 H   0  0  0  0  0  0  0  0  0  0  0  0
    5.7931   -1.2239   -2.4492 H   0  0  0  0  0  0  0  0  0  0  0  0
    6.5621    0.6803   -3.5981 H   0  0  0  0  0  0  0  0  0  0  0  0
    4.3842   -0.2058   -5.5181 H   0  0  0  0  0  0  0  0  0  0  0  0
    5.6271   -2.1545   -4.8040 H   0  0  0  0  0  0  0  0  0  0  0  0
    7.1656   -1.3418   -5.0784 H   0  0  0  0  0  0  0  0  0  0  0  0
    5.0472   -1.9586   -7.2202 H   0  0  0  0  0  0  0  0  0  0  0  0
    7.7014   -3.3358   -6.6255 H   0  0  0  0  0  0  0  0  0  0  0  0
    6.6572   -3.6460   -8.0322 H   0  0  0  0  0  0  0  0  0  0  0  0
    6.0749   -3.9868   -6.4012 H   0  0  0  0  0  0  0  0  0  0  0  0
    8.4364   -1.9714   -8.4086 H   0  0  0  0  0  0  0  0  0  0  0  0
    8.7694    2.1991   -9.2811 H   0  0  0  0  0  0  0  0  0  0  0  0
    8.7180    1.7357   -7.5675 H   0  0  0  0  0  0  0  0  0  0  0  0
    6.5175    1.4146   -9.6669 H   0  0  0  0  0  0  0  0  0  0  0  0
    6.5078    2.6315   -8.4191 H   0  0  0  0  0  0  0  0  0  0  0  0
    4.6539   -0.0282   -9.2552 H   0  0  0  0  0  0  0  0  0  0  0  0
    4.2026    1.4704   -8.4444 H   0  0  0  0  0  0  0  0  0  0  0  0
    3.9508   -0.0739   -7.6409 H   0  0  0  0  0  0  0  0  0  0  0  0
    7.0906    1.1847   -5.8783 H   0  0  0  0  0  0  0  0  0  0  0  0
    4.3348    2.4077   -6.3670 H   0  0  0  0  0  0  0  0  0  0  0  0
    5.8869    3.2106   -6.4889 H   0  0  0  0  0  0  0  0  0  0  0  0
    4.7109    3.7686   -4.3932 H   0  0  0  0  0  0  0  0  0  0  0  0
    6.3029    3.0750   -4.1491 H   0  0  0  0  0  0  0  0  0  0  0  0
    3.0058    1.2683   -4.9784 H   0  0  0  0  0  0  0  0  0  0  0  0
    2.6132    2.4982   -3.8043 H   0  0  0  0  0  0  0  0  0  0  0  0
    2.6760    0.8042   -3.3170 H   0  0  0  0  0  0  0  0  0  0  0  0
  1  2  1  0  0  0  0
  1 29  1  0  0  0  0
  1 30  1  0  0  0  0
  1 31  1  0  0  0  0
  2  3  2  0  0  0  0
  2  4  1  0  0  0  0
  5  9  1  0  0  0  0
  5 27  1  0  0  0  0
  5  6  1  1  0  0  0
  5  4  1  0  0  0  0
  6  7  1  0  0  0  0
  6  8  2  0  0  0  0
  7 32  1  0  0  0  0
  7 33  1  0  0  0  0
  7 34  1  0  0  0  0
  9 10  1  0  0  0  0
  9 35  1  0  0  0  0
  9 36  1  0  0  0  0
 10 11  1  0  0  0  0
 10 37  1  0  0  0  0
 10 38  1  0  0  0  0
 11 12  1  0  0  0  0
 11 27  1  0  0  0  0
 11 39  1  1  0  0  0
 12 13  1  0  0  0  0
 12 24  1  0  0  0  0
 12 40  1  6  0  0  0
 13 14  1  0  0  0  0
 13 41  1  0  0  0  0
 13 42  1  0  0  0  0
 14 16  1  0  0  0  0
 14 15  1  0  0  0  0
 14 43  1  6  0  0  0
 15 44  1  0  0  0  0
 15 45  1  0  0  0  0
 15 46  1  0  0  0  0
 16 17  2  0  0  0  0
 16 22  1  0  0  0  0
 17 18  1  0  0  0  0
 17 47  1  0  0  0  0
 18 19  2  0  0  0  0
 18 20  1  0  0  0  0
 20 21  1  0  0  0  0
 20 48  1  0  0  0  0
 20 49  1  0  0  0  0
 21 22  1  0  0  0  0
 21 50  1  0  0  0  0
 21 51  1  0  0  0  0
 22 23  1  6  0  0  0
 22 24  1  0  0  0  0
 23 52  1  0  0  0  0
 23 53  1  0  0  0  0
 23 54  1  0  0  0  0
 24 25  1  0  0  0  0
 24 55  1  1  0  0  0
 25 26  1  0  0  0  0
 25 56  1  0  0  0  0
 25 57  1  0  0  0  0
 26 27  1  0  0  0  0
 26 58  1  0  0  0  0
 26 59  1  0  0  0  0
 27 28  1  6  0  0  0
 28 60  1  0  0  0  0
 28 61  1  0  0  0  0
 28 62  1  0  0  0  0
M  END
$$$$
