CHEBI:17465
 OpenBabel04242416383D

 47 50  0  0  1  0  0  0  0  0999 V2000
    4.5433    1.0793    1.0101 C   0  0  0  0  0  0  0  0  0  0  0  0
    3.6796   -0.1401    1.3414 C   0  0  0  0  0  0  0  0  0  0  0  0
    3.3728   -0.1702    2.8420 C   0  0  0  0  0  0  0  0  0  0  0  0
    2.4385   -0.0254    0.6399 O   0  0  0  0  0  0  0  0  0  0  0  0
    4.3448   -1.4630    0.9185 C   0  0  0  0  0  0  0  0  0  0  0  0
    4.5994   -1.5735   -0.5902 C   0  0  0  0  0  0  0  0  0  0  0  0
    5.1790   -2.9140   -0.9577 C   0  0  0  0  0  0  0  0  0  0  0  0
    4.4041   -4.0585   -1.1928 C   0  0  0  0  0  0  0  0  0  0  0  0
    3.0391   -4.0633   -1.1033 O   0  0  0  0  0  0  0  0  0  0  0  0
    4.9921   -5.2879   -1.5347 C   0  0  0  0  0  0  0  0  0  0  0  0
    6.3783   -5.4146   -1.6340 C   0  0  0  0  0  0  0  0  0  0  0  0
    7.1465   -4.2920   -1.3926 C   0  0  0  0  0  0  0  0  0  0  0  0
    6.5548   -3.0754   -1.0683 C   0  0  0  0  0  0  0  0  0  0  0  0
    7.4754   -2.0752   -0.8471 O   0  0  0  0  0  0  0  0  0  0  0  0
    8.7052   -2.6070   -1.4075 C   0  0  1  0  0  0  0  0  0  0  0  0
    9.8976   -2.0611   -0.6699 C   0  0  0  0  0  0  0  0  0  0  0  0
   10.1432   -0.6793   -0.6400 C   0  0  0  0  0  0  0  0  0  0  0  0
   11.2920   -0.1764   -0.0256 C   0  0  0  0  0  0  0  0  0  0  0  0
   12.1992   -1.0589    0.5529 C   0  0  0  0  0  0  0  0  0  0  0  0
   13.3421   -0.6109    1.1473 O   0  0  0  0  0  0  0  0  0  0  0  0
   11.9673   -2.4289    0.5418 C   0  0  0  0  0  0  0  0  0  0  0  0
   10.8087   -2.9260   -0.0520 C   0  0  0  0  0  0  0  0  0  0  0  0
   10.6417   -4.2863   -0.0270 O   0  0  0  0  0  0  0  0  0  0  0  0
    9.2655   -4.6724   -0.1067 C   0  0  0  0  0  0  0  0  0  0  0  0
    8.6227   -4.1390   -1.3776 C   0  0  1  0  0  0  0  0  0  0  0  0
    4.0773    1.9986    1.3837 H   0  0  0  0  0  0  0  0  0  0  0  0
    4.6470    1.2171   -0.0711 H   0  0  0  0  0  0  0  0  0  0  0  0
    5.5411    0.9969    1.4532 H   0  0  0  0  0  0  0  0  0  0  0  0
    2.8624    0.7477    3.1561 H   0  0  0  0  0  0  0  0  0  0  0  0
    4.2849   -0.2793    3.4378 H   0  0  0  0  0  0  0  0  0  0  0  0
    2.6955   -0.9966    3.0855 H   0  0  0  0  0  0  0  0  0  0  0  0
    2.0152    0.8062    0.9176 H   0  0  0  0  0  0  0  0  0  0  0  0
    3.6934   -2.2946    1.2201 H   0  0  0  0  0  0  0  0  0  0  0  0
    5.2894   -1.5942    1.4627 H   0  0  0  0  0  0  0  0  0  0  0  0
    5.2846   -0.7835   -0.9185 H   0  0  0  0  0  0  0  0  0  0  0  0
    3.6791   -1.4045   -1.1611 H   0  0  0  0  0  0  0  0  0  0  0  0
    2.7295   -3.1985   -0.7879 H   0  0  0  0  0  0  0  0  0  0  0  0
    4.3553   -6.1511   -1.7148 H   0  0  0  0  0  0  0  0  0  0  0  0
    6.8281   -6.3690   -1.8869 H   0  0  0  0  0  0  0  0  0  0  0  0
    8.7558   -2.2632   -2.4516 H   0  0  0  0  0  0  0  0  0  0  0  0
    9.4398    0.0083   -1.1060 H   0  0  0  0  0  0  0  0  0  0  0  0
   11.4641    0.8951   -0.0171 H   0  0  0  0  0  0  0  0  0  0  0  0
   13.3755    0.3563    1.0692 H   0  0  0  0  0  0  0  0  0  0  0  0
   12.6813   -3.1064    1.0004 H   0  0  0  0  0  0  0  0  0  0  0  0
    8.7453   -4.3461    0.8051 H   0  0  0  0  0  0  0  0  0  0  0  0
    9.2333   -5.7682   -0.1037 H   0  0  0  0  0  0  0  0  0  0  0  0
    9.1097   -4.5565   -2.2662 H   0  0  0  0  0  0  0  0  0  0  0  0
  1  2  1  0  0  0  0
  1 26  1  0  0  0  0
  1 27  1  0  0  0  0
  1 28  1  0  0  0  0
  2  3  1  0  0  0  0
  2  4  1  0  0  0  0
  2  5  1  0  0  0  0
  3 29  1  0  0  0  0
  3 30  1  0  0  0  0
  3 31  1  0  0  0  0
  4 32  1  0  0  0  0
  5  6  1  0  0  0  0
  5 33  1  0  0  0  0
  5 34  1  0  0  0  0
  6  7  1  0  0  0  0
  6 35  1  0  0  0  0
  6 36  1  0  0  0  0
  7  8  1  0  0  0  0
  7 13  2  0  0  0  0
  8  9  1  0  0  0  0
  8 10  2  0  0  0  0
  9 37  1  0  0  0  0
 10 11  1  0  0  0  0
 10 38  1  0  0  0  0
 11 12  2  0  0  0  0
 11 39  1  0  0  0  0
 12 13  1  0  0  0  0
 12 25  1  0  0  0  0
 13 14  1  0  0  0  0
 14 15  1  0  0  0  0
 15 16  1  0  0  0  0
 15 25  1  0  0  0  0
 15 40  1  6  0  0  0
 16 17  1  0  0  0  0
 16 22  2  0  0  0  0
 17 18  2  0  0  0  0
 17 41  1  0  0  0  0
 18 19  1  0  0  0  0
 18 42  1  0  0  0  0
 19 20  1  0  0  0  0
 19 21  2  0  0  0  0
 20 43  1  0  0  0  0
 21 22  1  0  0  0  0
 21 44  1  0  0  0  0
 22 23  1  0  0  0  0
 23 24  1  0  0  0  0
 24 25  1  0  0  0  0
 24 45  1  0  0  0  0
 24 46  1  0  0  0  0
 25 47  1  6  0  0  0
M  END
$$$$
