CHEBI:16812
 OpenBabel04242415183D

 16 15  0  0  1  0  0  0  0  0999 V2000
    2.7068    3.4622   -1.6568 C   0  0  0  0  0  0  0  0  0  0  0  0
    2.3709    2.4131   -0.6016 C   0  0  2  0  0  0  0  0  0  0  0  0
    0.9519    2.3237   -0.4778 O   0  0  0  0  0  0  0  0  0  0  0  0
    2.9806    1.0351   -0.9337 C   0  0  2  0  0  0  0  0  0  0  0  0
    2.6481   -0.0125    0.1240 C   0  0  0  0  0  0  0  0  0  0  0  0
    4.3992    1.1247   -1.0615 O   0  0  0  0  0  0  0  0  0  0  0  0
    2.2257    4.4154   -1.4120 H   0  0  0  0  0  0  0  0  0  0  0  0
    2.3289    3.1626   -2.6405 H   0  0  0  0  0  0  0  0  0  0  0  0
    3.7854    3.6281   -1.7322 H   0  0  0  0  0  0  0  0  0  0  0  0
    2.7631    2.7623    0.3607 H   0  0  0  0  0  0  0  0  0  0  0  0
    0.5893    2.1137   -1.3562 H   0  0  0  0  0  0  0  0  0  0  0  0
    2.5859    0.6844   -1.8944 H   0  0  0  0  0  0  0  0  0  0  0  0
    3.0304    0.2878    1.1058 H   0  0  0  0  0  0  0  0  0  0  0  0
    3.1273   -0.9664   -0.1216 H   0  0  0  0  0  0  0  0  0  0  0  0
    1.5696   -0.1773    0.2042 H   0  0  0  0  0  0  0  0  0  0  0  0
    4.7642    1.3375   -0.1848 H   0  0  0  0  0  0  0  0  0  0  0  0
  1  7  1  0  0  0  0
  1  8  1  0  0  0  0
  1  9  1  0  0  0  0
  2  3  1  0  0  0  0
  2  1  1  0  0  0  0
  2 10  1  6  0  0  0
  3 11  1  0  0  0  0
  4  6  1  0  0  0  0
  4  5  1  0  0  0  0
  4  2  1  0  0  0  0
  4 12  1  6  0  0  0
  5 13  1  0  0  0  0
  5 14  1  0  0  0  0
  5 15  1  0  0  0  0
  6 16  1  0  0  0  0
M  END
$$$$
