CHEBI:17857
 OpenBabel04242417423D

 23 23  0  0  0  0  0  0  0  0999 V2000
   -1.5183    2.6622    3.5564 C   0  0  0  0  0  0  0  0  0  0  0  0
   -0.2577    2.9323    4.2976 C   0  0  0  0  0  0  0  0  0  0  0  0
   -0.2059    4.0605    5.1032 N   0  0  0  0  0  0  0  0  0  0  0  0
    0.9680    4.1390    5.6865 C   0  0  0  0  0  0  0  0  0  0  0  0
    2.0822    2.8996    5.3033 S   0  0  0  0  0  0  0  0  0  0  0  0
    0.9062    2.1780    4.2763 C   0  0  0  0  0  0  0  0  0  0  0  0
    1.2229    0.9112    3.5363 C   0  0  0  0  0  0  0  0  0  0  0  0
    1.7681    1.1821    2.1361 C   0  0  0  0  0  0  0  0  0  0  0  0
    0.6964    1.4665    1.2484 O   0  0  0  0  0  0  0  0  0  0  0  0
    1.0505    2.0264   -0.2062 P   0  0  0  0  0  0  0  0  0  0  0  0
   -0.0672    2.0816   -1.1879 O   0  0  0  0  0  0  0  0  0  0  0  0
    1.7061    3.4559    0.0599 O   0  0  0  0  0  0  0  0  0  0  0  0
    2.2963    1.1681   -0.7133 O   0  0  0  0  0  0  0  0  0  0  0  0
   -2.3539    3.2125    4.0012 H   0  0  0  0  0  0  0  0  0  0  0  0
   -1.7698    1.5978    3.5801 H   0  0  0  0  0  0  0  0  0  0  0  0
   -1.4191    2.9777    2.5136 H   0  0  0  0  0  0  0  0  0  0  0  0
    1.2218    4.9391    6.3693 H   0  0  0  0  0  0  0  0  0  0  0  0
    0.3200    0.2919    3.4758 H   0  0  0  0  0  0  0  0  0  0  0  0
    1.9653    0.3356    4.1029 H   0  0  0  0  0  0  0  0  0  0  0  0
    2.2702    0.2796    1.7717 H   0  0  0  0  0  0  0  0  0  0  0  0
    2.4909    2.0052    2.1356 H   0  0  0  0  0  0  0  0  0  0  0  0
    1.0181    4.1457    0.1066 H   0  0  0  0  0  0  0  0  0  0  0  0
    2.4357    1.2985   -1.6685 H   0  0  0  0  0  0  0  0  0  0  0  0
  1  2  1  0  0  0  0
  1 14  1  0  0  0  0
  1 15  1  0  0  0  0
  1 16  1  0  0  0  0
  2  3  1  0  0  0  0
  2  6  2  0  0  0  0
  3  4  2  0  0  0  0
  4  5  1  0  0  0  0
  4 17  1  0  0  0  0
  5  6  1  0  0  0  0
  6  7  1  0  0  0  0
  7  8  1  0  0  0  0
  7 18  1  0  0  0  0
  7 19  1  0  0  0  0
  8  9  1  0  0  0  0
  8 20  1  0  0  0  0
  8 21  1  0  0  0  0
  9 10  1  0  0  0  0
 10 11  2  0  0  0  0
 10 12  1  0  0  0  0
 10 13  1  0  0  0  0
 12 22  1  0  0  0  0
 13 23  1  0  0  0  0
M  END
$$$$
