CHEBI:16200
 OpenBabel04242414003D

 33 35  0  0  0  0  0  0  0  0999 V2000
    2.5283   -0.5118   -0.9874 C   0  0  0  0  0  0  0  0  0  0  0  0
    2.0885    0.1425    0.2052 O   0  0  0  0  0  0  0  0  0  0  0  0
    2.9613   -0.0911    1.2355 C   0  0  0  0  0  0  0  0  0  0  0  0
    2.6468   -1.1678    2.0741 C   0  0  0  0  0  0  0  0  0  0  0  0
    3.4663   -1.4535    3.1564 C   0  0  0  0  0  0  0  0  0  0  0  0
    3.2056   -2.4970    3.9915 O   0  0  0  0  0  0  0  0  0  0  0  0
    4.5855   -0.6763    3.4197 C   0  0  0  0  0  0  0  0  0  0  0  0
    4.8849    0.4178    2.5945 C   0  0  0  0  0  0  0  0  0  0  0  0
    4.0685    0.7319    1.5035 C   0  0  0  0  0  0  0  0  0  0  0  0
    4.3939    1.9205    0.6766 C   0  0  0  0  0  0  0  0  0  0  0  0
    3.6781    2.2927   -0.2481 O   0  0  0  0  0  0  0  0  0  0  0  0
    5.6244    2.6920    0.9479 C   0  0  0  0  0  0  0  0  0  0  0  0
    5.9912    3.7714    0.1316 C   0  0  0  0  0  0  0  0  0  0  0  0
    5.2437    4.1891   -0.9378 O   0  0  0  0  0  0  0  0  0  0  0  0
    7.1649    4.4848    0.3741 C   0  0  0  0  0  0  0  0  0  0  0  0
    7.9977    4.1312    1.4401 C   0  0  0  0  0  0  0  0  0  0  0  0
    9.2583    4.8947    1.7203 C   0  0  0  0  0  0  0  0  0  0  0  0
    7.6235    3.0658    2.2686 C   0  0  0  0  0  0  0  0  0  0  0  0
    6.4433    2.3480    2.0189 C   0  0  0  0  0  0  0  0  0  0  0  0
    6.0832    1.2239    2.9006 C   0  0  0  0  0  0  0  0  0  0  0  0
    6.7805    0.9552    3.8712 O   0  0  0  0  0  0  0  0  0  0  0  0
    1.7271   -0.4317   -1.7279 H   0  0  0  0  0  0  0  0  0  0  0  0
    2.7242   -1.5763   -0.8151 H   0  0  0  0  0  0  0  0  0  0  0  0
    3.4211   -0.0295   -1.3976 H   0  0  0  0  0  0  0  0  0  0  0  0
    1.7640   -1.7645    1.8641 H   0  0  0  0  0  0  0  0  0  0  0  0
    2.3780   -2.9288    3.7202 H   0  0  0  0  0  0  0  0  0  0  0  0
    5.2181   -0.9193    4.2717 H   0  0  0  0  0  0  0  0  0  0  0  0
    4.4344    3.6290   -0.9800 H   0  0  0  0  0  0  0  0  0  0  0  0
    7.4228    5.3166   -0.2785 H   0  0  0  0  0  0  0  0  0  0  0  0
    9.5127    5.5638    0.8917 H   0  0  0  0  0  0  0  0  0  0  0  0
   10.0979    4.2049    1.8555 H   0  0  0  0  0  0  0  0  0  0  0  0
    9.1387    5.4980    2.6254 H   0  0  0  0  0  0  0  0  0  0  0  0
    8.2573    2.7891    3.1112 H   0  0  0  0  0  0  0  0  0  0  0  0
  1  2  1  0  0  0  0
  1 22  1  0  0  0  0
  1 23  1  0  0  0  0
  1 24  1  0  0  0  0
  2  3  1  0  0  0  0
  3  4  1  0  0  0  0
  3  9  2  0  0  0  0
  4  5  2  0  0  0  0
  4 25  1  0  0  0  0
  5  6  1  0  0  0  0
  5  7  1  0  0  0  0
  6 26  1  0  0  0  0
  7  8  2  0  0  0  0
  7 27  1  0  0  0  0
  8  9  1  0  0  0  0
  8 20  1  0  0  0  0
  9 10  1  0  0  0  0
 10 11  2  0  0  0  0
 10 12  1  0  0  0  0
 12 13  1  0  0  0  0
 12 19  2  0  0  0  0
 13 14  1  0  0  0  0
 13 15  2  0  0  0  0
 14 28  1  0  0  0  0
 15 16  1  0  0  0  0
 15 29  1  0  0  0  0
 16 17  1  0  0  0  0
 16 18  2  0  0  0  0
 17 30  1  0  0  0  0
 17 31  1  0  0  0  0
 17 32  1  0  0  0  0
 18 19  1  0  0  0  0
 18 33  1  0  0  0  0
 19 20  1  0  0  0  0
 20 21  2  0  0  0  0
M  END
$$$$
