CHEBI:15337
 OpenBabel04242411433D

 22 21  0  0  0  0  0  0  0  0999 V2000
    2.9648    1.6077    1.9899 C   0  0  0  0  0  0  0  0  0  0  0  0
    2.2073    0.8060    0.9388 C   0  0  0  0  0  0  0  0  0  0  0  0
    2.5612   -0.6502    0.8764 N   0  0  0  0  0  0  0  0  0  0  0  0
    2.5157   -1.3279    2.1906 C   0  0  0  0  0  0  0  0  0  0  0  0
    2.8568   -2.8077    2.0054 C   0  0  0  0  0  0  0  0  0  0  0  0
    2.7752   -3.5524    3.3145 C   0  0  0  0  0  0  0  0  0  0  0  0
    2.4641   -3.0594    4.3855 O   0  0  0  0  0  0  0  0  0  0  0  0
    3.0983   -4.8601    3.1848 O   0  0  0  0  0  0  0  0  0  0  0  0
    0.6836    0.9795    1.0663 C   0  0  0  0  0  0  0  0  0  0  0  0
    0.1135    1.9918    1.4403 O   0  0  0  0  0  0  0  0  0  0  0  0
    0.0229   -0.1286    0.6364 O   0  0  0  0  0  0  0  0  0  0  0  0
    4.0441    1.4393    1.9116 H   0  0  0  0  0  0  0  0  0  0  0  0
    2.6423    1.3615    3.0068 H   0  0  0  0  0  0  0  0  0  0  0  0
    2.7877    2.6802    1.8500 H   0  0  0  0  0  0  0  0  0  0  0  0
    2.4562    1.2156   -0.0486 H   0  0  0  0  0  0  0  0  0  0  0  0
    3.5273   -0.6998    0.5380 H   0  0  0  0  0  0  0  0  0  0  0  0
    1.5186   -1.2333    2.6359 H   0  0  0  0  0  0  0  0  0  0  0  0
    3.2368   -0.8811    2.8841 H   0  0  0  0  0  0  0  0  0  0  0  0
    3.8774   -2.9082    1.6180 H   0  0  0  0  0  0  0  0  0  0  0  0
    2.1564   -3.2717    1.3018 H   0  0  0  0  0  0  0  0  0  0  0  0
    3.3257   -5.1303    2.2749 H   0  0  0  0  0  0  0  0  0  0  0  0
    0.7176   -0.7908    0.4088 H   0  0  0  0  0  0  0  0  0  0  0  0
  1  2  1  0  0  0  0
  1 12  1  0  0  0  0
  1 13  1  0  0  0  0
  1 14  1  0  0  0  0
  2  3  1  0  0  0  0
  2  9  1  0  0  0  0
  2 15  1  0  0  0  0
  3  4  1  0  0  0  0
  3 16  1  0  0  0  0
  4  5  1  0  0  0  0
  4 17  1  0  0  0  0
  4 18  1  0  0  0  0
  5  6  1  0  0  0  0
  5 19  1  0  0  0  0
  5 20  1  0  0  0  0
  6  7  2  0  0  0  0
  6  8  1  0  0  0  0
  8 21  1  0  0  0  0
  9 10  2  0  0  0  0
  9 11  1  0  0  0  0
 11 22  1  0  0  0  0
M  END
$$$$
