CHEBI:18144
 OpenBabel04242423363D

130129  0  0  0  0  0  0  0  0999 V2000
   17.9725   22.5353  -10.8653 C   0  0  0  0  0  0  0  0  0  0  0  0
   18.2271   21.8549   -9.5465 C   0  0  0  0  0  0  0  0  0  0  0  0
   17.3171   22.2986   -8.4335 C   0  0  0  0  0  0  0  0  0  0  0  0
   19.2159   20.9481   -9.4175 C   0  0  0  0  0  0  0  0  0  0  0  0
   19.5898   20.1917   -8.1708 C   0  0  0  0  0  0  0  0  0  0  0  0
   20.6452   20.9540   -7.3613 C   0  0  0  0  0  0  0  0  0  0  0  0
   20.9732   20.2930   -6.0292 C   0  0  0  0  0  0  0  0  0  0  0  0
   19.8574   20.3950   -5.0298 C   0  0  0  0  0  0  0  0  0  0  0  0
   22.1973   19.7597   -5.8343 C   0  0  0  0  0  0  0  0  0  0  0  0
   22.8732   19.0687   -4.6717 C   0  0  0  0  0  0  0  0  0  0  0  0
   22.0892   18.2892   -3.6050 C   0  0  0  0  0  0  0  0  0  0  0  0
   21.4032   17.0371   -4.1229 C   0  0  0  0  0  0  0  0  0  0  0  0
   22.3239   15.8643   -4.2966 C   0  0  0  0  0  0  0  0  0  0  0  0
   20.0718   17.0353   -4.3353 C   0  0  0  0  0  0  0  0  0  0  0  0
   19.1394   15.9872   -4.8856 C   0  0  0  0  0  0  0  0  0  0  0  0
   19.3198   15.5984   -6.3705 C   0  0  0  0  0  0  0  0  0  0  0  0
   20.4099   14.5637   -6.6121 C   0  0  0  0  0  0  0  0  0  0  0  0
   21.5258   15.0415   -7.5005 C   0  0  0  0  0  0  0  0  0  0  0  0
   20.3506   13.3941   -5.9363 C   0  0  0  0  0  0  0  0  0  0  0  0
   21.3374   12.2712   -5.7359 C   0  0  0  0  0  0  0  0  0  0  0  0
   22.2839   11.9204   -6.8780 C   0  0  0  0  0  0  0  0  0  0  0  0
   23.3250   10.8171   -6.6692 C   0  0  0  0  0  0  0  0  0  0  0  0
   24.0202   10.5511   -7.9824 C   0  0  0  0  0  0  0  0  0  0  0  0
   23.5948   10.2401   -5.4744 C   0  0  0  0  0  0  0  0  0  0  0  0
   24.5724    9.1494   -5.0472 C   0  0  0  0  0  0  0  0  0  0  0  0
   25.0652    8.2022   -6.1455 C   0  0  0  0  0  0  0  0  0  0  0  0
   25.6088    6.8109   -5.8387 C   0  0  0  0  0  0  0  0  0  0  0  0
   25.2675    5.8501   -6.9445 C   0  0  0  0  0  0  0  0  0  0  0  0
   26.3604    6.5216   -4.7579 C   0  0  0  0  0  0  0  0  0  0  0  0
   27.0934    5.2531   -4.3609 C   0  0  0  0  0  0  0  0  0  0  0  0
   26.4917    3.8376   -4.5267 C   0  0  0  0  0  0  0  0  0  0  0  0
   25.1097    3.5760   -3.9431 C   0  0  0  0  0  0  0  0  0  0  0  0
   24.1612    2.8393   -4.8499 C   0  0  0  0  0  0  0  0  0  0  0  0
   24.8205    3.9510   -2.6795 C   0  0  0  0  0  0  0  0  0  0  0  0
   23.5487    3.8946   -1.8600 C   0  0  0  0  0  0  0  0  0  0  0  0
   22.1464    3.9936   -2.5064 C   0  0  0  0  0  0  0  0  0  0  0  0
   21.8155    5.2117   -3.3575 C   0  0  0  0  0  0  0  0  0  0  0  0
   22.9286    6.1549   -3.7094 C   0  0  0  0  0  0  0  0  0  0  0  0
   20.5710    5.4314   -3.8424 C   0  0  0  0  0  0  0  0  0  0  0  0
   20.2734    6.5654   -4.7995 C   0  0  0  0  0  0  0  0  0  0  0  0
   18.9131    6.5403   -5.5083 C   0  0  0  0  0  0  0  0  0  0  0  0
   18.8121    7.5552   -6.6481 C   0  0  0  0  0  0  0  0  0  0  0  0
   19.5595    8.8559   -6.4839 C   0  0  0  0  0  0  0  0  0  0  0  0
   18.0912    7.2675   -7.7524 C   0  0  0  0  0  0  0  0  0  0  0  0
   17.9450    8.1126   -8.9862 C   0  0  0  0  0  0  0  0  0  0  0  0
   19.1982    8.3765   -9.5881 O   0  0  0  0  0  0  0  0  0  0  0  0
   19.9492    7.1524  -10.3018 P   0  0  0  0  0  0  0  0  0  0  0  0
   19.1449    6.4300  -11.3272 O   0  0  0  0  0  0  0  0  0  0  0  0
   21.2239    7.8724  -10.9594 O   0  0  0  0  0  0  0  0  0  0  0  0
   20.5804    6.2942   -9.1335 O   0  0  0  0  0  0  0  0  0  0  0  0
   21.5318    5.0556   -9.2782 P   0  0  0  0  0  0  0  0  0  0  0  0
   20.9980    3.8361   -9.9491 O   0  0  0  0  0  0  0  0  0  0  0  0
   22.8914    5.6258   -9.8840 O   0  0  0  0  0  0  0  0  0  0  0  0
   21.9956    4.7333   -7.7847 O   0  0  0  0  0  0  0  0  0  0  0  0
   18.1280   23.6150  -10.7698 H   0  0  0  0  0  0  0  0  0  0  0  0
   16.9421   22.3590  -11.1905 H   0  0  0  0  0  0  0  0  0  0  0  0
   18.6374   22.1715  -11.6556 H   0  0  0  0  0  0  0  0  0  0  0  0
   17.5500   21.8357   -7.4714 H   0  0  0  0  0  0  0  0  0  0  0  0
   16.2777   22.0549   -8.6765 H   0  0  0  0  0  0  0  0  0  0  0  0
   17.3943   23.3824   -8.2953 H   0  0  0  0  0  0  0  0  0  0  0  0
   19.8331   20.7175  -10.2853 H   0  0  0  0  0  0  0  0  0  0  0  0
   19.9840   19.2100   -8.4634 H   0  0  0  0  0  0  0  0  0  0  0  0
   18.6975   19.9813   -7.5718 H   0  0  0  0  0  0  0  0  0  0  0  0
   20.2989   21.9767   -7.1587 H   0  0  0  0  0  0  0  0  0  0  0  0
   21.5505   21.0691   -7.9717 H   0  0  0  0  0  0  0  0  0  0  0  0
   20.1817   20.2459   -4.0025 H   0  0  0  0  0  0  0  0  0  0  0  0
   19.0695   19.6742   -5.2686 H   0  0  0  0  0  0  0  0  0  0  0  0
   19.4040   21.3912   -5.0574 H   0  0  0  0  0  0  0  0  0  0  0  0
   22.8893   19.8415   -6.6766 H   0  0  0  0  0  0  0  0  0  0  0  0
   23.4796   19.8276   -4.1605 H   0  0  0  0  0  0  0  0  0  0  0  0
   23.6023   18.3729   -5.1120 H   0  0  0  0  0  0  0  0  0  0  0  0
   21.3896   18.9386   -3.0750 H   0  0  0  0  0  0  0  0  0  0  0  0
   22.8013   17.9831   -2.8252 H   0  0  0  0  0  0  0  0  0  0  0  0
   22.9269   15.9754   -5.2017 H   0  0  0  0  0  0  0  0  0  0  0  0
   21.7863   14.9193   -4.3226 H   0  0  0  0  0  0  0  0  0  0  0  0
   23.0125   15.7833   -3.4485 H   0  0  0  0  0  0  0  0  0  0  0  0
   19.5349   17.9371   -4.0548 H   0  0  0  0  0  0  0  0  0  0  0  0
   18.1297   16.4172   -4.8107 H   0  0  0  0  0  0  0  0  0  0  0  0
   19.1225   15.1220   -4.2160 H   0  0  0  0  0  0  0  0  0  0  0  0
   19.4983   16.5054   -6.9631 H   0  0  0  0  0  0  0  0  0  0  0  0
   18.3761   15.1853   -6.7513 H   0  0  0  0  0  0  0  0  0  0  0  0
   21.3722   14.6950   -8.5268 H   0  0  0  0  0  0  0  0  0  0  0  0
   22.5069   14.7241   -7.1485 H   0  0  0  0  0  0  0  0  0  0  0  0
   21.5785   16.1361   -7.5230 H   0  0  0  0  0  0  0  0  0  0  0  0
   19.4573   13.2315   -5.3292 H   0  0  0  0  0  0  0  0  0  0  0  0
   20.7522   11.3747   -5.4954 H   0  0  0  0  0  0  0  0  0  0  0  0
   21.9056   12.5130   -4.8297 H   0  0  0  0  0  0  0  0  0  0  0  0
   22.8667   12.7998   -7.1524 H   0  0  0  0  0  0  0  0  0  0  0  0
   21.6691   11.6572   -7.7491 H   0  0  0  0  0  0  0  0  0  0  0  0
   23.3115   10.1188   -8.6968 H   0  0  0  0  0  0  0  0  0  0  0  0
   24.8802    9.8957   -7.9288 H   0  0  0  0  0  0  0  0  0  0  0  0
   24.3966   11.4922   -8.3987 H   0  0  0  0  0  0  0  0  0  0  0  0
   23.0241   10.5889   -4.6121 H   0  0  0  0  0  0  0  0  0  0  0  0
   24.0682    8.5661   -4.2727 H   0  0  0  0  0  0  0  0  0  0  0  0
   25.4221    9.6255   -4.5434 H   0  0  0  0  0  0  0  0  0  0  0  0
   25.8712    8.7072   -6.6900 H   0  0  0  0  0  0  0  0  0  0  0  0
   24.2246    8.0613   -6.8370 H   0  0  0  0  0  0  0  0  0  0  0  0
   24.1817    5.7287   -6.9922 H   0  0  0  0  0  0  0  0  0  0  0  0
   25.7041    4.8642   -6.8400 H   0  0  0  0  0  0  0  0  0  0  0  0
   25.6080    6.2484   -7.9060 H   0  0  0  0  0  0  0  0  0  0  0  0
   26.5627    7.3418   -4.0670 H   0  0  0  0  0  0  0  0  0  0  0  0
   27.3642    5.3678   -3.3026 H   0  0  0  0  0  0  0  0  0  0  0  0
   28.0553    5.2674   -4.8921 H   0  0  0  0  0  0  0  0  0  0  0  0
   27.1821    3.1226   -4.0566 H   0  0  0  0  0  0  0  0  0  0  0  0
   26.5237    3.5600   -5.5842 H   0  0  0  0  0  0  0  0  0  0  0  0
   24.0670    1.7961   -4.5328 H   0  0  0  0  0  0  0  0  0  0  0  0
   24.5115    2.8355   -5.8873 H   0  0  0  0  0  0  0  0  0  0  0  0
   23.1734    3.2975   -4.8836 H   0  0  0  0  0  0  0  0  0  0  0  0
   25.6331    4.4049   -2.1091 H   0  0  0  0  0  0  0  0  0  0  0  0
   23.6172    4.7176   -1.1335 H   0  0  0  0  0  0  0  0  0  0  0  0
   23.5906    2.9787   -1.2566 H   0  0  0  0  0  0  0  0  0  0  0  0
   21.4237    3.9695   -1.6784 H   0  0  0  0  0  0  0  0  0  0  0  0
   21.9600    3.0836   -3.0875 H   0  0  0  0  0  0  0  0  0  0  0  0
   23.6161    6.3285   -2.8796 H   0  0  0  0  0  0  0  0  0  0  0  0
   22.5568    7.1449   -3.9758 H   0  0  0  0  0  0  0  0  0  0  0  0
   23.4655    5.7607   -4.5716 H   0  0  0  0  0  0  0  0  0  0  0  0
   19.7583    4.7586   -3.5811 H   0  0  0  0  0  0  0  0  0  0  0  0
   21.0515    6.5682   -5.5748 H   0  0  0  0  0  0  0  0  0  0  0  0
   20.3470    7.5040   -4.2355 H   0  0  0  0  0  0  0  0  0  0  0  0
   18.1245    6.7553   -4.7773 H   0  0  0  0  0  0  0  0  0  0  0  0
   18.7302    5.5297   -5.8955 H   0  0  0  0  0  0  0  0  0  0  0  0
   20.6386    8.6918   -6.5762 H   0  0  0  0  0  0  0  0  0  0  0  0
   19.3524    9.2909   -5.5012 H   0  0  0  0  0  0  0  0  0  0  0  0
   19.2816    9.6094   -7.2258 H   0  0  0  0  0  0  0  0  0  0  0  0
   17.5644    6.3155   -7.7977 H   0  0  0  0  0  0  0  0  0  0  0  0
   17.4734    9.0683   -8.7337 H   0  0  0  0  0  0  0  0  0  0  0  0
   17.2890    7.6180   -9.7101 H   0  0  0  0  0  0  0  0  0  0  0  0
   21.3322    7.5752  -11.8837 H   0  0  0  0  0  0  0  0  0  0  0  0
   23.2275    6.3716   -9.3519 H   0  0  0  0  0  0  0  0  0  0  0  0
   22.1700    3.7795   -7.6799 H   0  0  0  0  0  0  0  0  0  0  0  0
  1  2  1  0  0  0  0
  1 55  1  0  0  0  0
  1 56  1  0  0  0  0
  1 57  1  0  0  0  0
  2  3  1  0  0  0  0
  2  4  2  0  0  0  0
  3 58  1  0  0  0  0
  3 59  1  0  0  0  0
  3 60  1  0  0  0  0
  4  5  1  0  0  0  0
  4 61  1  0  0  0  0
  5  6  1  0  0  0  0
  5 62  1  0  0  0  0
  5 63  1  0  0  0  0
  6  7  1  0  0  0  0
  6 64  1  0  0  0  0
  6 65  1  0  0  0  0
  7  8  1  0  0  0  0
  7  9  2  0  0  0  0
  8 66  1  0  0  0  0
  8 67  1  0  0  0  0
  8 68  1  0  0  0  0
  9 10  1  0  0  0  0
  9 69  1  0  0  0  0
 10 11  1  0  0  0  0
 10 70  1  0  0  0  0
 10 71  1  0  0  0  0
 11 12  1  0  0  0  0
 11 72  1  0  0  0  0
 11 73  1  0  0  0  0
 12 13  1  0  0  0  0
 12 14  2  0  0  0  0
 13 74  1  0  0  0  0
 13 75  1  0  0  0  0
 13 76  1  0  0  0  0
 14 15  1  0  0  0  0
 14 77  1  0  0  0  0
 15 16  1  0  0  0  0
 15 78  1  0  0  0  0
 15 79  1  0  0  0  0
 16 17  1  0  0  0  0
 16 80  1  0  0  0  0
 16 81  1  0  0  0  0
 17 18  1  0  0  0  0
 17 19  2  0  0  0  0
 18 82  1  0  0  0  0
 18 83  1  0  0  0  0
 18 84  1  0  0  0  0
 19 20  1  0  0  0  0
 19 85  1  0  0  0  0
 20 21  1  0  0  0  0
 20 86  1  0  0  0  0
 20 87  1  0  0  0  0
 21 22  1  0  0  0  0
 21 88  1  0  0  0  0
 21 89  1  0  0  0  0
 22 23  1  0  0  0  0
 22 24  2  0  0  0  0
 23 90  1  0  0  0  0
 23 91  1  0  0  0  0
 23 92  1  0  0  0  0
 24 25  1  0  0  0  0
 24 93  1  0  0  0  0
 25 26  1  0  0  0  0
 25 94  1  0  0  0  0
 25 95  1  0  0  0  0
 26 27  1  0  0  0  0
 26 96  1  0  0  0  0
 26 97  1  0  0  0  0
 27 28  1  0  0  0  0
 27 29  2  0  0  0  0
 28 98  1  0  0  0  0
 28 99  1  0  0  0  0
 28100  1  0  0  0  0
 29 30  1  0  0  0  0
 29101  1  0  0  0  0
 30 31  1  0  0  0  0
 30102  1  0  0  0  0
 30103  1  0  0  0  0
 31 32  1  0  0  0  0
 31104  1  0  0  0  0
 31105  1  0  0  0  0
 32 33  1  0  0  0  0
 32 34  2  0  0  0  0
 33106  1  0  0  0  0
 33107  1  0  0  0  0
 33108  1  0  0  0  0
 34 35  1  0  0  0  0
 34109  1  0  0  0  0
 35 36  1  0  0  0  0
 35110  1  0  0  0  0
 35111  1  0  0  0  0
 36 37  1  0  0  0  0
 36112  1  0  0  0  0
 36113  1  0  0  0  0
 37 38  1  0  0  0  0
 37 39  2  0  0  0  0
 38114  1  0  0  0  0
 38115  1  0  0  0  0
 38116  1  0  0  0  0
 39 40  1  0  0  0  0
 39117  1  0  0  0  0
 40 41  1  0  0  0  0
 40118  1  0  0  0  0
 40119  1  0  0  0  0
 41 42  1  0  0  0  0
 41120  1  0  0  0  0
 41121  1  0  0  0  0
 42 43  1  0  0  0  0
 42 44  2  0  0  0  0
 43122  1  0  0  0  0
 43123  1  0  0  0  0
 43124  1  0  0  0  0
 44 45  1  0  0  0  0
 44125  1  0  0  0  0
 45 46  1  0  0  0  0
 45126  1  0  0  0  0
 45127  1  0  0  0  0
 46 47  1  0  0  0  0
 47 48  2  0  0  0  0
 47 49  1  0  0  0  0
 47 50  1  0  0  0  0
 49128  1  0  0  0  0
 50 51  1  0  0  0  0
 51 52  2  0  0  0  0
 51 53  1  0  0  0  0
 51 54  1  0  0  0  0
 53129  1  0  0  0  0
 54130  1  0  0  0  0
M  END
$$$$
