CHEBI:15709
 OpenBabel04242413083D

 21 23  0  0  0  0  0  0  0  0999 V2000
    1.1149   -0.4385    0.3050 O   0  0  0  0  0  0  0  0  0  0  0  0
    2.3300   -0.3284    0.1909 C   0  0  0  0  0  0  0  0  0  0  0  0
    2.9604    1.0027    0.1636 C   0  0  0  0  0  0  0  0  0  0  0  0
    4.2797    1.1710    0.0353 C   0  0  0  0  0  0  0  0  0  0  0  0
    5.1468    0.0079   -0.0853 C   0  0  0  0  0  0  0  0  0  0  0  0
    6.5382    0.1555   -0.2298 C   0  0  0  0  0  0  0  0  0  0  0  0
    7.3373   -0.9997   -0.3463 C   0  0  0  0  0  0  0  0  0  0  0  0
    8.7230   -1.2666   -0.5051 C   0  0  0  0  0  0  0  0  0  0  0  0
    8.8540   -2.6362   -0.5550 C   0  0  0  0  0  0  0  0  0  0  0  0
    7.6417   -3.2393   -0.4368 O   0  0  0  0  0  0  0  0  0  0  0  0
    6.7185   -2.2443   -0.3107 C   0  0  0  0  0  0  0  0  0  0  0  0
    5.3447   -2.4263   -0.1668 C   0  0  0  0  0  0  0  0  0  0  0  0
    4.7748   -3.6709   -0.1362 O   0  0  0  0  0  0  0  0  0  0  0  0
    4.5746   -1.2677   -0.0569 C   0  0  0  0  0  0  0  0  0  0  0  0
    3.1757   -1.4204    0.0836 O   0  0  0  0  0  0  0  0  0  0  0  0
    2.2833    1.8433    0.2544 H   0  0  0  0  0  0  0  0  0  0  0  0
    4.7167    2.1634    0.0186 H   0  0  0  0  0  0  0  0  0  0  0  0
    6.9990    1.1389   -0.2545 H   0  0  0  0  0  0  0  0  0  0  0  0
    9.5284   -0.5492   -0.5757 H   0  0  0  0  0  0  0  0  0  0  0  0
    9.6979   -3.3035   -0.6657 H   0  0  0  0  0  0  0  0  0  0  0  0
    5.5054   -4.3104   -0.2288 H   0  0  0  0  0  0  0  0  0  0  0  0
  1  2  2  0  0  0  0
  2  3  1  0  0  0  0
  2 15  1  0  0  0  0
  3  4  2  0  0  0  0
  3 16  1  0  0  0  0
  4  5  1  0  0  0  0
  4 17  1  0  0  0  0
  5  6  1  0  0  0  0
  5 14  2  0  0  0  0
  6  7  2  0  0  0  0
  6 18  1  0  0  0  0
  7  8  1  0  0  0  0
  7 11  1  0  0  0  0
  8  9  2  0  0  0  0
  8 19  1  0  0  0  0
  9 10  1  0  0  0  0
  9 20  1  0  0  0  0
 10 11  1  0  0  0  0
 11 12  2  0  0  0  0
 12 13  1  0  0  0  0
 12 14  1  0  0  0  0
 13 21  1  0  0  0  0
 14 15  1  0  0  0  0
M  END
$$$$
