CHEBI:776
 OpenBabel04242410353D

 43 46  0  0  1  0  0  0  0  0999 V2000
    1.2062    1.2735   -0.8178 C   0  0  0  0  0  0  0  0  0  0  0  0
    2.5834    0.7587   -0.3591 C   0  0  2  0  0  0  0  0  0  0  0  0
    3.6365    0.9847   -1.4385 C   0  0  0  0  0  0  0  0  0  0  0  0
    3.3380    0.1045   -2.6669 C   0  0  0  0  0  0  0  0  0  0  0  0
    3.1965   -1.4022   -2.3335 C   0  0  2  0  0  0  0  0  0  0  0  0
    2.7015   -2.2954   -3.4686 C   0  0  0  0  0  0  0  0  0  0  0  0
    2.6471   -1.8681   -4.8063 C   0  0  0  0  0  0  0  0  0  0  0  0
    2.1935   -2.7195   -5.8201 C   0  0  0  0  0  0  0  0  0  0  0  0
    1.8159   -4.0173   -5.5078 C   0  0  0  0  0  0  0  0  0  0  0  0
    1.3709   -4.8838   -6.4612 O   0  0  0  0  0  0  0  0  0  0  0  0
    1.8719   -4.4704   -4.1989 C   0  0  0  0  0  0  0  0  0  0  0  0
    2.2974   -3.6154   -3.1686 C   0  0  0  0  0  0  0  0  0  0  0  0
    2.2496   -4.1483   -1.7574 C   0  0  0  0  0  0  0  0  0  0  0  0
    2.5635   -3.1388   -0.6544 C   0  0  0  0  0  0  0  0  0  0  0  0
    2.3134   -1.6834   -1.0821 C   0  0  1  0  0  0  0  0  0  0  0  0
    2.6524   -0.7225    0.0574 C   0  0  2  0  0  0  0  0  0  0  0  0
    1.8009   -0.8024    1.3273 C   0  0  0  0  0  0  0  0  0  0  0  0
    2.1934    0.4633    2.1070 C   0  0  1  0  0  0  0  0  0  0  0  0
    3.0560    0.1311    3.1711 O   0  0  0  0  0  0  0  0  0  0  0  0
    2.8283    1.3526    1.0187 C   0  0  0  0  0  0  0  0  0  0  0  0
    3.4217    2.3981    1.2434 O   0  0  0  0  0  0  0  0  0  0  0  0
    0.7988    0.7017   -1.6554 H   0  0  0  0  0  0  0  0  0  0  0  0
    1.2843    2.3207   -1.1361 H   0  0  0  0  0  0  0  0  0  0  0  0
    0.4591    1.2545   -0.0173 H   0  0  0  0  0  0  0  0  0  0  0  0
    4.6384    0.7509   -1.0554 H   0  0  0  0  0  0  0  0  0  0  0  0
    3.6675    2.0392   -1.7384 H   0  0  0  0  0  0  0  0  0  0  0  0
    4.1494    0.2427   -3.3933 H   0  0  0  0  0  0  0  0  0  0  0  0
    2.4288    0.4695   -3.1595 H   0  0  0  0  0  0  0  0  0  0  0  0
    4.2192   -1.7448   -2.1119 H   0  0  0  0  0  0  0  0  0  0  0  0
    2.9445   -0.8615   -5.0873 H   0  0  0  0  0  0  0  0  0  0  0  0
    2.1446   -2.3512   -6.8398 H   0  0  0  0  0  0  0  0  0  0  0  0
    1.3724   -4.4278   -7.3181 H   0  0  0  0  0  0  0  0  0  0  0  0
    1.5646   -5.4896   -3.9760 H   0  0  0  0  0  0  0  0  0  0  0  0
    2.9408   -4.9962   -1.6698 H   0  0  0  0  0  0  0  0  0  0  0  0
    1.2390   -4.5378   -1.5798 H   0  0  0  0  0  0  0  0  0  0  0  0
    3.6174   -3.2533   -0.3646 H   0  0  0  0  0  0  0  0  0  0  0  0
    1.9790   -3.3954    0.2364 H   0  0  0  0  0  0  0  0  0  0  0  0
    1.2519   -1.5709   -1.3421 H   0  0  0  0  0  0  0  0  0  0  0  0
    3.6885   -0.9456    0.3658 H   0  0  0  0  0  0  0  0  0  0  0  0
    1.9981   -1.7162    1.8959 H   0  0  0  0  0  0  0  0  0  0  0  0
    0.7344   -0.7834    1.0749 H   0  0  0  0  0  0  0  0  0  0  0  0
    1.2994    0.9539    2.5048 H   0  0  0  0  0  0  0  0  0  0  0  0
    3.2566    0.9640    3.6364 H   0  0  0  0  0  0  0  0  0  0  0  0
  1 22  1  0  0  0  0
  1 23  1  0  0  0  0
  1 24  1  0  0  0  0
  2  1  1  6  0  0  0
  2  3  1  0  0  0  0
  2 16  1  0  0  0  0
  2 20  1  0  0  0  0
  3  4  1  0  0  0  0
  3 25  1  0  0  0  0
  3 26  1  0  0  0  0
  4  5  1  0  0  0  0
  4 27  1  0  0  0  0
  4 28  1  0  0  0  0
  5  6  1  0  0  0  0
  5 15  1  0  0  0  0
  5 29  1  1  0  0  0
  6  7  1  0  0  0  0
  6 12  2  0  0  0  0
  7  8  2  0  0  0  0
  7 30  1  0  0  0  0
  8  9  1  0  0  0  0
  8 31  1  0  0  0  0
  9 10  1  0  0  0  0
  9 11  2  0  0  0  0
 10 32  1  0  0  0  0
 11 12  1  0  0  0  0
 11 33  1  0  0  0  0
 12 13  1  0  0  0  0
 13 14  1  0  0  0  0
 13 34  1  0  0  0  0
 13 35  1  0  0  0  0
 14 15  1  0  0  0  0
 14 36  1  0  0  0  0
 14 37  1  0  0  0  0
 15 16  1  0  0  0  0
 15 38  1  6  0  0  0
 16 17  1  0  0  0  0
 16 39  1  1  0  0  0
 17 18  1  0  0  0  0
 17 40  1  0  0  0  0
 17 41  1  0  0  0  0
 18 19  1  0  0  0  0
 18 20  1  0  0  0  0
 18 42  1  1  0  0  0
 19 43  1  0  0  0  0
 20 21  2  0  0  0  0
M  END
$$$$
