CHEBI:17957
 OpenBabel04242423193D

 18 18  0  0  0  0  0  0  0  0999 V2000
   -2.6118    0.4699   -0.4499 C   0  0  0  0  0  0  0  0  0  0  0  0
   -1.1689    0.5733   -0.1024 C   0  0  0  0  0  0  0  0  0  0  0  0
   -0.6213    1.8368    0.0535 N   0  0  0  0  0  0  0  0  0  0  0  0
    0.6575    1.7377    0.3362 C   0  0  0  0  0  0  0  0  0  0  0  0
    1.2815    0.1485    0.4475 S   0  0  0  0  0  0  0  0  0  0  0  0
   -0.2804   -0.4743    0.0922 C   0  0  0  0  0  0  0  0  0  0  0  0
   -0.5180   -1.9542    0.0207 C   0  0  0  0  0  0  0  0  0  0  0  0
   -0.7400   -2.5731    1.4005 C   0  0  0  0  0  0  0  0  0  0  0  0
   -1.9722   -2.1401    1.9695 O   0  0  0  0  0  0  0  0  0  0  0  0
   -3.0713    1.4614   -0.5131 H   0  0  0  0  0  0  0  0  0  0  0  0
   -3.1517   -0.1046    0.3085 H   0  0  0  0  0  0  0  0  0  0  0  0
   -2.7368   -0.0240   -1.4184 H   0  0  0  0  0  0  0  0  0  0  0  0
    1.2834    2.6067    0.4910 H   0  0  0  0  0  0  0  0  0  0  0  0
    0.3365   -2.4423   -0.4634 H   0  0  0  0  0  0  0  0  0  0  0  0
   -1.3946   -2.1465   -0.6097 H   0  0  0  0  0  0  0  0  0  0  0  0
    0.0703   -2.3378    2.0985 H   0  0  0  0  0  0  0  0  0  0  0  0
   -0.7943   -3.6623    1.3059 H   0  0  0  0  0  0  0  0  0  0  0  0
   -1.8616   -1.2029    2.2118 H   0  0  0  0  0  0  0  0  0  0  0  0
  1  2  1  0  0  0  0
  1 10  1  0  0  0  0
  1 11  1  0  0  0  0
  1 12  1  0  0  0  0
  2  3  1  0  0  0  0
  2  6  2  0  0  0  0
  3  4  2  0  0  0  0
  4  5  1  0  0  0  0
  4 13  1  0  0  0  0
  5  6  1  0  0  0  0
  6  7  1  0  0  0  0
  7  8  1  0  0  0  0
  7 14  1  0  0  0  0
  7 15  1  0  0  0  0
  8  9  1  0  0  0  0
  8 16  1  0  0  0  0
  8 17  1  0  0  0  0
  9 18  1  0  0  0  0
M  END
$$$$
