CHEBI:16126
 OpenBabel04242413513D

 47 48  0  0  1  0  0  0  0  0999 V2000
    0.2420    0.2353    1.5112 C   0  0  0  0  0  0  0  0  0  0  0  0
    1.5907    0.8978    1.5197 C   0  0  0  0  0  0  0  0  0  0  0  0
    1.7496    2.0930    1.7412 O   0  0  0  0  0  0  0  0  0  0  0  0
    2.6296    0.0386    1.2643 N   0  0  0  0  0  0  0  0  0  0  0  0
    4.0266    0.4843    1.2938 C   0  0  2  0  0  0  0  0  0  0  0  0
    4.9192   -0.4970    0.5010 C   0  0  1  0  0  0  0  0  0  0  0  0
    6.2196    0.0139    0.1664 O   0  0  0  0  0  0  0  0  0  0  0  0
    6.2166    1.1460   -0.7214 C   0  0  2  0  0  0  0  0  0  0  0  0
    5.6140    0.8095   -1.9772 O   0  0  0  0  0  0  0  0  0  0  0  0
    5.7862    1.7760   -2.9570 C   0  0  0  0  0  0  0  0  0  0  0  0
    4.8707    1.7269   -4.1380 C   0  0  0  0  0  0  0  0  0  0  0  0
    4.7946    2.5731   -5.0087 O   0  0  0  0  0  0  0  0  0  0  0  0
    4.1138    0.6060   -4.1058 O   0  0  0  0  0  0  0  0  0  0  0  0
    6.7245    2.7352   -2.9032 C   0  0  0  0  0  0  0  0  0  0  0  0
    7.7014    2.8323   -1.7847 C   0  0  2  0  0  0  0  0  0  0  0  0
    9.0032    3.0094   -2.3339 O   0  0  0  0  0  0  0  0  0  0  0  0
    7.6807    1.5844   -0.8958 C   0  0  1  0  0  0  0  0  0  0  0  0
    8.2999    1.8995    0.3632 O   0  0  0  0  0  0  0  0  0  0  0  0
    5.0840   -1.8008    1.3112 C   0  0  2  0  0  0  0  0  0  0  0  0
    3.7996   -2.4679    1.3472 O   0  0  0  0  0  0  0  0  0  0  0  0
    5.5513   -1.5407    2.7599 C   0  0  1  0  0  0  0  0  0  0  0  0
    7.0548   -1.2631    2.8947 C   0  0  0  0  0  0  0  0  0  0  0  0
    7.8038   -2.3879    2.4432 O   0  0  0  0  0  0  0  0  0  0  0  0
    4.7499   -0.5555    3.4269 O   0  0  0  0  0  0  0  0  0  0  0  0
    4.5638    0.6730    2.7330 C   0  0  1  0  0  0  0  0  0  0  0  0
    5.7781    1.4149    2.7276 O   0  0  0  0  0  0  0  0  0  0  0  0
    0.1496   -0.4227    0.6422 H   0  0  0  0  0  0  0  0  0  0  0  0
   -0.5391    0.9981    1.4501 H   0  0  0  0  0  0  0  0  0  0  0  0
    0.1126   -0.3437    2.4289 H   0  0  0  0  0  0  0  0  0  0  0  0
    2.4747   -0.9667    1.3459 H   0  0  0  0  0  0  0  0  0  0  0  0
    4.0344    1.4670    0.8141 H   0  0  0  0  0  0  0  0  0  0  0  0
    4.4099   -0.7556   -0.4373 H   0  0  0  0  0  0  0  0  0  0  0  0
    5.6634    1.9652   -0.2501 H   0  0  0  0  0  0  0  0  0  0  0  0
    4.3434    0.0544   -3.3305 H   0  0  0  0  0  0  0  0  0  0  0  0
    6.8053    3.4768   -3.6956 H   0  0  0  0  0  0  0  0  0  0  0  0
    7.4812    3.7294   -1.1936 H   0  0  0  0  0  0  0  0  0  0  0  0
    9.6120    3.0155   -1.5710 H   0  0  0  0  0  0  0  0  0  0  0  0
    8.2727    0.7759   -1.3429 H   0  0  0  0  0  0  0  0  0  0  0  0
    7.9302    1.2650    1.0086 H   0  0  0  0  0  0  0  0  0  0  0  0
    5.7781   -2.4760    0.7987 H   0  0  0  0  0  0  0  0  0  0  0  0
    3.9342   -3.3041    1.8325 H   0  0  0  0  0  0  0  0  0  0  0  0
    5.3653   -2.4668    3.3198 H   0  0  0  0  0  0  0  0  0  0  0  0
    7.3059   -1.0759    3.9446 H   0  0  0  0  0  0  0  0  0  0  0  0
    7.3781   -0.3914    2.3267 H   0  0  0  0  0  0  0  0  0  0  0  0
    8.7449   -2.1725    2.5728 H   0  0  0  0  0  0  0  0  0  0  0  0
    3.8370    1.2540    3.3116 H   0  0  0  0  0  0  0  0  0  0  0  0
    5.7773    1.9067    3.5682 H   0  0  0  0  0  0  0  0  0  0  0  0
  1  2  1  0  0  0  0
  1 27  1  0  0  0  0
  1 28  1  0  0  0  0
  1 29  1  0  0  0  0
  2  3  2  0  0  0  0
  2  4  1  0  0  0  0
  4  5  1  0  0  0  0
  4 30  1  0  0  0  0
  5  6  1  0  0  0  0
  5 25  1  0  0  0  0
  5 31  1  6  0  0  0
  6  7  1  0  0  0  0
  6 19  1  0  0  0  0
  6 32  1  6  0  0  0
  7  8  1  0  0  0  0
  8  9  1  0  0  0  0
  8 17  1  0  0  0  0
  8 33  1  1  0  0  0
  9 10  1  0  0  0  0
 10 11  1  0  0  0  0
 10 14  2  0  0  0  0
 11 12  2  0  0  0  0
 11 13  1  0  0  0  0
 13 34  1  0  0  0  0
 14 15  1  0  0  0  0
 14 35  1  0  0  0  0
 15 16  1  0  0  0  0
 15 17  1  0  0  0  0
 15 36  1  1  0  0  0
 16 37  1  0  0  0  0
 17 18  1  0  0  0  0
 17 38  1  6  0  0  0
 18 39  1  0  0  0  0
 19 21  1  0  0  0  0
 19 20  1  0  0  0  0
 19 40  1  6  0  0  0
 20 41  1  0  0  0  0
 21 22  1  0  0  0  0
 21 24  1  0  0  0  0
 21 42  1  1  0  0  0
 22 23  1  0  0  0  0
 22 43  1  0  0  0  0
 22 44  1  0  0  0  0
 23 45  1  0  0  0  0
 24 25  1  0  0  0  0
 25 26  1  0  0  0  0
 25 46  1  1  0  0  0
 26 47  1  0  0  0  0
M  END
$$$$
