CHEBI:4514
 OpenBabel04242410583D

 57 58  0  0  0  0  0  0  0  0999 V2000
   10.9009   -6.2447   -4.2900 C   0  0  0  0  0  0  0  0  0  0  0  0
   11.0596   -5.4694   -5.5947 C   0  0  0  0  0  0  0  0  0  0  0  0
   11.3756   -4.0357   -5.4746 N   0  0  0  0  0  0  0  0  0  0  0  0
   10.3210   -3.2480   -4.8106 C   0  0  0  0  0  0  0  0  0  0  0  0
    8.9633   -3.3110   -5.5009 C   0  0  0  0  0  0  0  0  0  0  0  0
   12.6658   -3.7742   -4.8046 C   0  0  0  0  0  0  0  0  0  0  0  0
   13.8959   -4.4074   -5.4696 C   0  0  0  0  0  0  0  0  0  0  0  0
   15.0953   -3.9819   -4.7963 O   0  0  0  0  0  0  0  0  0  0  0  0
   15.4249   -4.6906   -3.6804 C   0  0  0  0  0  0  0  0  0  0  0  0
   14.7408   -5.5982   -3.2207 O   0  0  0  0  0  0  0  0  0  0  0  0
   16.8094   -4.2707   -3.1275 C   0  0  0  0  0  0  0  0  0  0  0  0
   17.8539   -5.0027   -4.0714 C   0  0  0  0  0  0  0  0  0  0  0  0
   18.1915   -4.2145   -5.3608 C   0  0  0  0  0  0  0  0  0  0  0  0
   19.0424   -5.0323   -6.3305 C   0  0  0  0  0  0  0  0  0  0  0  0
   20.3257   -5.5175   -5.6716 C   0  0  0  0  0  0  0  0  0  0  0  0
   20.0322   -6.2822   -4.3882 C   0  0  0  0  0  0  0  0  0  0  0  0
   19.1685   -5.4701   -3.4191 C   0  0  0  0  0  0  0  0  0  0  0  0
   16.8791   -2.7198   -3.1190 C   0  0  0  0  0  0  0  0  0  0  0  0
   18.0158   -2.1520   -2.2769 C   0  0  0  0  0  0  0  0  0  0  0  0
   17.9069   -2.6150   -0.8321 C   0  0  0  0  0  0  0  0  0  0  0  0
   17.8896   -4.1325   -0.7376 C   0  0  0  0  0  0  0  0  0  0  0  0
   16.8310   -4.7640   -1.6454 C   0  0  0  0  0  0  0  0  0  0  0  0
   10.6852   -7.2957   -4.5102 H   0  0  0  0  0  0  0  0  0  0  0  0
   10.0728   -5.8598   -3.6879 H   0  0  0  0  0  0  0  0  0  0  0  0
   11.8127   -6.2195   -3.6865 H   0  0  0  0  0  0  0  0  0  0  0  0
   10.1476   -5.5936   -6.1901 H   0  0  0  0  0  0  0  0  0  0  0  0
   11.8284   -5.9603   -6.2027 H   0  0  0  0  0  0  0  0  0  0  0  0
   10.6230   -2.1925   -4.8108 H   0  0  0  0  0  0  0  0  0  0  0  0
   10.2090   -3.5390   -3.7591 H   0  0  0  0  0  0  0  0  0  0  0  0
    9.0481   -3.0661   -6.5645 H   0  0  0  0  0  0  0  0  0  0  0  0
    8.2818   -2.5862   -5.0431 H   0  0  0  0  0  0  0  0  0  0  0  0
    8.5016   -4.2979   -5.4029 H   0  0  0  0  0  0  0  0  0  0  0  0
   12.6241   -4.0609   -3.7468 H   0  0  0  0  0  0  0  0  0  0  0  0
   12.8454   -2.6900   -4.7969 H   0  0  0  0  0  0  0  0  0  0  0  0
   13.9788   -4.0689   -6.5083 H   0  0  0  0  0  0  0  0  0  0  0  0
   13.8525   -5.5019   -5.4917 H   0  0  0  0  0  0  0  0  0  0  0  0
   17.3623   -5.9302   -4.4060 H   0  0  0  0  0  0  0  0  0  0  0  0
   18.7404   -3.2995   -5.1074 H   0  0  0  0  0  0  0  0  0  0  0  0
   17.2824   -3.9107   -5.8871 H   0  0  0  0  0  0  0  0  0  0  0  0
   19.2866   -4.4233   -7.2084 H   0  0  0  0  0  0  0  0  0  0  0  0
   18.4628   -5.8916   -6.6897 H   0  0  0  0  0  0  0  0  0  0  0  0
   20.9693   -4.6584   -5.4465 H   0  0  0  0  0  0  0  0  0  0  0  0
   20.8785   -6.1587   -6.3672 H   0  0  0  0  0  0  0  0  0  0  0  0
   20.9739   -6.5560   -3.8993 H   0  0  0  0  0  0  0  0  0  0  0  0
   19.5174   -7.2199   -4.6330 H   0  0  0  0  0  0  0  0  0  0  0  0
   19.7464   -4.6079   -3.0706 H   0  0  0  0  0  0  0  0  0  0  0  0
   18.9648   -6.1129   -2.5575 H   0  0  0  0  0  0  0  0  0  0  0  0
   15.9337   -2.3252   -2.7178 H   0  0  0  0  0  0  0  0  0  0  0  0
   16.9425   -2.3072   -4.1313 H   0  0  0  0  0  0  0  0  0  0  0  0
   17.9768   -1.0568   -2.3069 H   0  0  0  0  0  0  0  0  0  0  0  0
   18.9842   -2.4436   -2.6963 H   0  0  0  0  0  0  0  0  0  0  0  0
   16.9899   -2.2111   -0.3852 H   0  0  0  0  0  0  0  0  0  0  0  0
   18.7451   -2.2171   -0.2491 H   0  0  0  0  0  0  0  0  0  0  0  0
   17.6918   -4.4268    0.3003 H   0  0  0  0  0  0  0  0  0  0  0  0
   18.8856   -4.5179   -0.9688 H   0  0  0  0  0  0  0  0  0  0  0  0
   15.8576   -4.5371   -1.1853 H   0  0  0  0  0  0  0  0  0  0  0  0
   16.9172   -5.8572   -1.6058 H   0  0  0  0  0  0  0  0  0  0  0  0
  1  2  1  0  0  0  0
  1 23  1  0  0  0  0
  1 24  1  0  0  0  0
  1 25  1  0  0  0  0
  2  3  1  0  0  0  0
  2 26  1  0  0  0  0
  2 27  1  0  0  0  0
  3  4  1  0  0  0  0
  3  6  1  0  0  0  0
  4  5  1  0  0  0  0
  4 28  1  0  0  0  0
  4 29  1  0  0  0  0
  5 30  1  0  0  0  0
  5 31  1  0  0  0  0
  5 32  1  0  0  0  0
  6  7  1  0  0  0  0
  6 33  1  0  0  0  0
  6 34  1  0  0  0  0
  7  8  1  0  0  0  0
  7 35  1  0  0  0  0
  7 36  1  0  0  0  0
  8  9  1  0  0  0  0
  9 10  2  0  0  0  0
  9 11  1  0  0  0  0
 11 12  1  0  0  0  0
 11 18  1  0  0  0  0
 11 22  1  0  0  0  0
 12 13  1  0  0  0  0
 12 17  1  0  0  0  0
 12 37  1  0  0  0  0
 13 14  1  0  0  0  0
 13 38  1  0  0  0  0
 13 39  1  0  0  0  0
 14 15  1  0  0  0  0
 14 40  1  0  0  0  0
 14 41  1  0  0  0  0
 15 16  1  0  0  0  0
 15 42  1  0  0  0  0
 15 43  1  0  0  0  0
 16 17  1  0  0  0  0
 16 44  1  0  0  0  0
 16 45  1  0  0  0  0
 17 46  1  0  0  0  0
 17 47  1  0  0  0  0
 18 19  1  0  0  0  0
 18 48  1  0  0  0  0
 18 49  1  0  0  0  0
 19 20  1  0  0  0  0
 19 50  1  0  0  0  0
 19 51  1  0  0  0  0
 20 21  1  0  0  0  0
 20 52  1  0  0  0  0
 20 53  1  0  0  0  0
 21 22  1  0  0  0  0
 21 54  1  0  0  0  0
 21 55  1  0  0  0  0
 22 56  1  0  0  0  0
 22 57  1  0  0  0  0
M  END
$$$$
