CHEBI:2700
 OpenBabel04242410383D

 62 61  0  0  0  0  0  0  0  0999 V2000
   13.5781   -3.5280   -3.3412 C   0  0  0  0  0  0  0  0  0  0  0  0
   12.2427   -3.2355   -2.6748 C   0  0  0  0  0  0  0  0  0  0  0  0
   11.9297   -4.2628   -1.5870 C   0  0  0  0  0  0  0  0  0  0  0  0
   10.5640   -4.0018   -0.9438 C   0  0  0  0  0  0  0  0  0  0  0  0
   10.2707   -4.9243    0.2472 C   0  0  0  0  0  0  0  0  0  0  0  0
   10.0570   -6.3637   -0.1366 C   0  0  0  0  0  0  0  0  0  0  0  0
    9.0991   -7.1933    0.3114 C   0  0  0  0  0  0  0  0  0  0  0  0
    8.0184   -6.8995    1.3136 C   0  0  0  0  0  0  0  0  0  0  0  0
    6.6594   -7.0771    0.7028 C   0  0  0  0  0  0  0  0  0  0  0  0
    5.5628   -7.5753    1.2976 C   0  0  0  0  0  0  0  0  0  0  0  0
    5.4082   -8.0156    2.7251 C   0  0  0  0  0  0  0  0  0  0  0  0
    4.9615   -9.4464    2.8408 C   0  0  0  0  0  0  0  0  0  0  0  0
    3.7157   -9.9235    2.6617 C   0  0  0  0  0  0  0  0  0  0  0  0
    2.5132   -9.1327    2.2347 C   0  0  0  0  0  0  0  0  0  0  0  0
    1.3491   -9.2927    3.1699 C   0  0  0  0  0  0  0  0  0  0  0  0
    1.0196   -8.4758    4.1852 C   0  0  0  0  0  0  0  0  0  0  0  0
    1.8294   -7.3115    4.6842 C   0  0  0  0  0  0  0  0  0  0  0  0
    1.5258   -5.9798    3.9900 C   0  0  0  0  0  0  0  0  0  0  0  0
    0.1178   -5.4381    4.2288 C   0  0  0  0  0  0  0  0  0  0  0  0
   -0.1032   -4.9437    5.6483 C   0  0  0  0  0  0  0  0  0  0  0  0
    0.7337   -5.0010    6.5339 O   0  0  0  0  0  0  0  0  0  0  0  0
   -1.3720   -4.4246    5.8363 N   0  0  0  0  0  0  0  0  0  0  0  0
   -1.7312   -3.8146    7.1093 C   0  0  0  0  0  0  0  0  0  0  0  0
   -3.2476   -3.7308    7.2619 C   0  0  0  0  0  0  0  0  0  0  0  0
   -3.8305   -5.0307    7.1915 O   0  0  0  0  0  0  0  0  0  0  0  0
   13.7897   -2.7812   -4.1125 H   0  0  0  0  0  0  0  0  0  0  0  0
   13.5703   -4.5143   -3.8164 H   0  0  0  0  0  0  0  0  0  0  0  0
   14.3941   -3.5052   -2.6118 H   0  0  0  0  0  0  0  0  0  0  0  0
   11.4522   -3.2420   -3.4340 H   0  0  0  0  0  0  0  0  0  0  0  0
   12.2693   -2.2293   -2.2406 H   0  0  0  0  0  0  0  0  0  0  0  0
   12.7109   -4.2275   -0.8178 H   0  0  0  0  0  0  0  0  0  0  0  0
   11.9534   -5.2658   -2.0266 H   0  0  0  0  0  0  0  0  0  0  0  0
    9.7721   -4.0976   -1.6971 H   0  0  0  0  0  0  0  0  0  0  0  0
   10.5354   -2.9650   -0.5849 H   0  0  0  0  0  0  0  0  0  0  0  0
    9.3917   -4.5226    0.7604 H   0  0  0  0  0  0  0  0  0  0  0  0
   11.1034   -4.8738    0.9586 H   0  0  0  0  0  0  0  0  0  0  0  0
   10.7751   -6.7836   -0.8390 H   0  0  0  0  0  0  0  0  0  0  0  0
    9.1030   -8.2156   -0.0678 H   0  0  0  0  0  0  0  0  0  0  0  0
    8.0915   -5.8826    1.7076 H   0  0  0  0  0  0  0  0  0  0  0  0
    8.1654   -7.5803    2.1585 H   0  0  0  0  0  0  0  0  0  0  0  0
    6.5591   -6.7460   -0.3308 H   0  0  0  0  0  0  0  0  0  0  0  0
    4.6554   -7.6217    0.6972 H   0  0  0  0  0  0  0  0  0  0  0  0
    4.6864   -7.3537    3.2148 H   0  0  0  0  0  0  0  0  0  0  0  0
    6.3352   -7.8962    3.2955 H   0  0  0  0  0  0  0  0  0  0  0  0
    5.7409  -10.1523    3.1247 H   0  0  0  0  0  0  0  0  0  0  0  0
    3.5572  -10.9924    2.7971 H   0  0  0  0  0  0  0  0  0  0  0  0
    2.2045   -9.4873    1.2433 H   0  0  0  0  0  0  0  0  0  0  0  0
    2.7454   -8.0725    2.1044 H   0  0  0  0  0  0  0  0  0  0  0  0
    0.6941  -10.1368    2.9593 H   0  0  0  0  0  0  0  0  0  0  0  0
    0.1191   -8.7017    4.7542 H   0  0  0  0  0  0  0  0  0  0  0  0
    2.8952   -7.5323    4.5683 H   0  0  0  0  0  0  0  0  0  0  0  0
    1.6774   -7.2291    5.7659 H   0  0  0  0  0  0  0  0  0  0  0  0
    1.6742   -6.0919    2.9087 H   0  0  0  0  0  0  0  0  0  0  0  0
    2.2618   -5.2387    4.3261 H   0  0  0  0  0  0  0  0  0  0  0  0
   -0.6394   -6.1930    3.9923 H   0  0  0  0  0  0  0  0  0  0  0  0
   -0.0420   -4.5850    3.5578 H   0  0  0  0  0  0  0  0  0  0  0  0
   -1.8731   -4.1245    5.0091 H   0  0  0  0  0  0  0  0  0  0  0  0
   -1.2791   -2.8183    7.1469 H   0  0  0  0  0  0  0  0  0  0  0  0
   -1.3053   -4.4227    7.9150 H   0  0  0  0  0  0  0  0  0  0  0  0
   -3.6862   -3.1231    6.4641 H   0  0  0  0  0  0  0  0  0  0  0  0
   -3.5153   -3.2871    8.2250 H   0  0  0  0  0  0  0  0  0  0  0  0
   -3.2462   -5.5728    6.6295 H   0  0  0  0  0  0  0  0  0  0  0  0
  1  2  1  0  0  0  0
  1 26  1  0  0  0  0
  1 27  1  0  0  0  0
  1 28  1  0  0  0  0
  2  3  1  0  0  0  0
  2 29  1  0  0  0  0
  2 30  1  0  0  0  0
  3  4  1  0  0  0  0
  3 31  1  0  0  0  0
  3 32  1  0  0  0  0
  4  5  1  0  0  0  0
  4 33  1  0  0  0  0
  4 34  1  0  0  0  0
  5  6  1  0  0  0  0
  5 35  1  0  0  0  0
  5 36  1  0  0  0  0
  6  7  2  0  0  0  0
  6 37  1  0  0  0  0
  7  8  1  0  0  0  0
  7 38  1  0  0  0  0
  8  9  1  0  0  0  0
  8 39  1  0  0  0  0
  8 40  1  0  0  0  0
  9 10  2  0  0  0  0
  9 41  1  0  0  0  0
 10 11  1  0  0  0  0
 10 42  1  0  0  0  0
 11 12  1  0  0  0  0
 11 43  1  0  0  0  0
 11 44  1  0  0  0  0
 12 13  2  0  0  0  0
 12 45  1  0  0  0  0
 13 14  1  0  0  0  0
 13 46  1  0  0  0  0
 14 15  1  0  0  0  0
 14 47  1  0  0  0  0
 14 48  1  0  0  0  0
 15 16  2  0  0  0  0
 15 49  1  0  0  0  0
 16 17  1  0  0  0  0
 16 50  1  0  0  0  0
 17 18  1  0  0  0  0
 17 51  1  0  0  0  0
 17 52  1  0  0  0  0
 18 19  1  0  0  0  0
 18 53  1  0  0  0  0
 18 54  1  0  0  0  0
 19 20  1  0  0  0  0
 19 55  1  0  0  0  0
 19 56  1  0  0  0  0
 20 21  2  0  0  0  0
 20 22  1  0  0  0  0
 22 23  1  0  0  0  0
 22 57  1  0  0  0  0
 23 24  1  0  0  0  0
 23 58  1  0  0  0  0
 23 59  1  0  0  0  0
 24 25  1  0  0  0  0
 24 60  1  0  0  0  0
 24 61  1  0  0  0  0
 25 62  1  0  0  0  0
M  END
$$$$
