CHEBI:18346
 OpenBabel04252409263D

 19 19  0  0  0  0  0  0  0  0999 V2000
    1.1387    1.7575    0.4938 C   0  0  0  0  0  0  0  0  0  0  0  0
    2.5313    1.4833    0.5432 O   0  0  0  0  0  0  0  0  0  0  0  0
    3.4039    2.4959    0.2496 C   0  0  0  0  0  0  0  0  0  0  0  0
    4.7442    2.1021    0.3667 C   0  0  0  0  0  0  0  0  0  0  0  0
    5.7757    3.0065    0.1060 C   0  0  0  0  0  0  0  0  0  0  0  0
    7.1773    2.5642    0.2393 C   0  0  0  0  0  0  0  0  0  0  0  0
    8.1185    3.3178    0.0239 O   0  0  0  0  0  0  0  0  0  0  0  0
    5.4844    4.3154   -0.2764 C   0  0  0  0  0  0  0  0  0  0  0  0
    4.1543    4.7176   -0.3978 C   0  0  0  0  0  0  0  0  0  0  0  0
    3.1177    3.8125   -0.1364 C   0  0  0  0  0  0  0  0  0  0  0  0
    1.8306    4.2528   -0.2711 O   0  0  0  0  0  0  0  0  0  0  0  0
    0.6129    0.8401    0.7773 H   0  0  0  0  0  0  0  0  0  0  0  0
    0.8197    2.0110   -0.5219 H   0  0  0  0  0  0  0  0  0  0  0  0
    0.8580    2.5272    1.2195 H   0  0  0  0  0  0  0  0  0  0  0  0
    4.9666    1.0802    0.6651 H   0  0  0  0  0  0  0  0  0  0  0  0
    7.3384    1.5166    0.5443 H   0  0  0  0  0  0  0  0  0  0  0  0
    6.2878    5.0207   -0.4798 H   0  0  0  0  0  0  0  0  0  0  0  0
    3.9458    5.7409   -0.6975 H   0  0  0  0  0  0  0  0  0  0  0  0
    1.8358    5.1843   -0.5463 H   0  0  0  0  0  0  0  0  0  0  0  0
  1  2  1  0  0  0  0
  1 12  1  0  0  0  0
  1 13  1  0  0  0  0
  1 14  1  0  0  0  0
  2  3  1  0  0  0  0
  3  4  1  0  0  0  0
  3 10  2  0  0  0  0
  4  5  2  0  0  0  0
  4 15  1  0  0  0  0
  5  6  1  0  0  0  0
  5  8  1  0  0  0  0
  6  7  2  0  0  0  0
  6 16  1  0  0  0  0
  8  9  2  0  0  0  0
  8 17  1  0  0  0  0
  9 10  1  0  0  0  0
  9 18  1  0  0  0  0
 10 11  1  0  0  0  0
 11 19  1  0  0  0  0
M  END
$$$$
