CHEBI:16394
 OpenBabel04242414183D

 20 20  0  0  0  0  0  0  0  0999 V2000
    3.2222    1.0930    1.1040 C   0  0  0  0  0  0  0  0  0  0  0  0
    2.5071    1.2169   -0.1705 N   0  0  0  0  0  0  0  0  0  0  0  0
    3.1994    0.7281   -1.3153 C   0  0  0  0  0  0  0  0  0  0  0  0
    3.9495   -0.4595   -1.2671 C   0  0  0  0  0  0  0  0  0  0  0  0
    4.5376   -0.9919   -2.4183 C   0  0  0  0  0  0  0  0  0  0  0  0
    4.3650   -0.3641   -3.6465 C   0  0  0  0  0  0  0  0  0  0  0  0
    3.5975    0.7958   -3.7263 C   0  0  0  0  0  0  0  0  0  0  0  0
    3.0046    1.3443   -2.5754 C   0  0  0  0  0  0  0  0  0  0  0  0
    2.2097    2.5974   -2.7710 C   0  0  0  0  0  0  0  0  0  0  0  0
    1.9445    3.0490   -3.8743 O   0  0  0  0  0  0  0  0  0  0  0  0
    1.8281    3.2096   -1.6292 O   0  0  0  0  0  0  0  0  0  0  0  0
    2.6941    1.6843    1.8586 H   0  0  0  0  0  0  0  0  0  0  0  0
    4.2425    1.4837    1.0288 H   0  0  0  0  0  0  0  0  0  0  0  0
    3.2443    0.0569    1.4559 H   0  0  0  0  0  0  0  0  0  0  0  0
    1.6317    0.6798   -0.1047 H   0  0  0  0  0  0  0  0  0  0  0  0
    4.0833   -1.0038   -0.3366 H   0  0  0  0  0  0  0  0  0  0  0  0
    5.1222   -1.9070   -2.3553 H   0  0  0  0  0  0  0  0  0  0  0  0
    4.8183   -0.7791   -4.5435 H   0  0  0  0  0  0  0  0  0  0  0  0
    3.4600    1.2767   -4.6940 H   0  0  0  0  0  0  0  0  0  0  0  0
    2.1081    2.6809   -0.8415 H   0  0  0  0  0  0  0  0  0  0  0  0
  1  2  1  0  0  0  0
  1 12  1  0  0  0  0
  1 13  1  0  0  0  0
  1 14  1  0  0  0  0
  2  3  1  0  0  0  0
  2 15  1  0  0  0  0
  3  4  1  0  0  0  0
  3  8  2  0  0  0  0
  4  5  2  0  0  0  0
  4 16  1  0  0  0  0
  5  6  1  0  0  0  0
  5 17  1  0  0  0  0
  6  7  2  0  0  0  0
  6 18  1  0  0  0  0
  7  8  1  0  0  0  0
  7 19  1  0  0  0  0
  8  9  1  0  0  0  0
  9 10  2  0  0  0  0
  9 11  1  0  0  0  0
 11 20  1  0  0  0  0
M  END
$$$$
