CHEBI:18124
 OpenBabel04242423343D

 12 11  0  0  0  0  0  0  0  0999 V2000
    1.0752    0.1936   -0.5112 O   0  0  0  0  0  0  0  0  0  0  0  0
    2.0810   -0.2260    0.0551 C   0  0  0  0  0  0  0  0  0  0  0  0
    3.2403   -0.8154   -0.6754 C   0  0  0  0  0  0  0  0  0  0  0  0
    4.7603   -0.3741    0.0990 P   0  0  0  0  0  0  0  0  0  0  0  0
    5.1006    1.0679    0.2501 O   0  0  0  0  0  0  0  0  0  0  0  0
    4.7712   -1.1332    1.5104 O   0  0  0  0  0  0  0  0  0  0  0  0
    5.9030   -1.1825   -0.6789 O   0  0  0  0  0  0  0  0  0  0  0  0
    2.1201   -0.2840    1.1563 H   0  0  0  0  0  0  0  0  0  0  0  0
    3.2219   -0.4647   -1.7114 H   0  0  0  0  0  0  0  0  0  0  0  0
    3.1170   -1.9026   -0.6775 H   0  0  0  0  0  0  0  0  0  0  0  0
    5.5013   -0.8485    2.0930 H   0  0  0  0  0  0  0  0  0  0  0  0
    6.8055   -0.8786   -0.4665 H   0  0  0  0  0  0  0  0  0  0  0  0
  1  2  2  0  0  0  0
  2  3  1  0  0  0  0
  2  8  1  0  0  0  0
  3  4  1  0  0  0  0
  3  9  1  0  0  0  0
  3 10  1  0  0  0  0
  4  5  2  0  0  0  0
  4  6  1  0  0  0  0
  4  7  1  0  0  0  0
  6 11  1  0  0  0  0
  7 12  1  0  0  0  0
M  END
$$$$
