CHEBI:18397
 OpenBabel04252409343D

 20 20  0  0  0  0  0  0  0  0999 V2000
    1.0130   -0.0481   -0.4060 N   0  0  0  0  0  0  0  0  0  0  0  0
    2.4669    0.0821   -0.5006 C   0  0  0  0  0  0  0  0  0  0  0  0
    3.1257   -1.2671   -0.8055 C   0  0  0  0  0  0  0  0  0  0  0  0
    4.6275   -1.1451   -0.8973 C   0  0  0  0  0  0  0  0  0  0  0  0
    5.4258   -1.3046    0.2434 C   0  0  0  0  0  0  0  0  0  0  0  0
    6.8127   -1.1715    0.1595 C   0  0  0  0  0  0  0  0  0  0  0  0
    7.4132   -0.8742   -1.0625 C   0  0  0  0  0  0  0  0  0  0  0  0
    6.6278   -0.7082   -2.2016 C   0  0  0  0  0  0  0  0  0  0  0  0
    5.2408   -0.8407   -2.1199 C   0  0  0  0  0  0  0  0  0  0  0  0
    0.6116    0.8601   -0.1750 H   0  0  0  0  0  0  0  0  0  0  0  0
    0.7754   -0.6680    0.3675 H   0  0  0  0  0  0  0  0  0  0  0  0
    2.8516    0.4909    0.4410 H   0  0  0  0  0  0  0  0  0  0  0  0
    2.7051    0.8054   -1.2888 H   0  0  0  0  0  0  0  0  0  0  0  0
    2.7362   -1.6764   -1.7468 H   0  0  0  0  0  0  0  0  0  0  0  0
    2.8692   -2.0004   -0.0296 H   0  0  0  0  0  0  0  0  0  0  0  0
    4.9719   -1.5352    1.2044 H   0  0  0  0  0  0  0  0  0  0  0  0
    7.4251   -1.3000    1.0482 H   0  0  0  0  0  0  0  0  0  0  0  0
    8.4931   -0.7715   -1.1272 H   0  0  0  0  0  0  0  0  0  0  0  0
    7.0951   -0.4752   -3.1548 H   0  0  0  0  0  0  0  0  0  0  0  0
    4.6398   -0.7058   -3.0167 H   0  0  0  0  0  0  0  0  0  0  0  0
  1  2  1  0  0  0  0
  1 10  1  0  0  0  0
  1 11  1  0  0  0  0
  2  3  1  0  0  0  0
  2 12  1  0  0  0  0
  2 13  1  0  0  0  0
  3  4  1  0  0  0  0
  3 14  1  0  0  0  0
  3 15  1  0  0  0  0
  4  5  1  0  0  0  0
  4  9  2  0  0  0  0
  5  6  2  0  0  0  0
  5 16  1  0  0  0  0
  6  7  1  0  0  0  0
  6 17  1  0  0  0  0
  7  8  2  0  0  0  0
  7 18  1  0  0  0  0
  8  9  1  0  0  0  0
  8 19  1  0  0  0  0
  9 20  1  0  0  0  0
M  END
$$$$
