CHEBI:16602
 OpenBabel04242414533D

  6  5  0  0  0  0  0  0  0  0999 V2000
    2.2272   -0.5494    0.0006 Cl  0  0  0  0  0  0  0  0  0  0  0  0
    0.5646   -0.9687    0.0012 C   0  0  0  0  0  0  0  0  0  0  0  0
   -0.4586   -0.1105    0.0023 C   0  0  0  0  0  0  0  0  0  0  0  0
   -0.2608    1.6039    0.0036 Cl  0  0  0  0  0  0  0  0  0  0  0  0
   -2.0791   -0.7179    0.0022 Cl  0  0  0  0  0  0  0  0  0  0  0  0
    0.4341   -2.0433    0.0005 H   0  0  0  0  0  0  0  0  0  0  0  0
  1  2  1  0  0  0  0
  2  3  2  0  0  0  0
  2  6  1  0  0  0  0
  3  4  1  0  0  0  0
  3  5  1  0  0  0  0
M  END
$$$$
