CHEBI:27428
 OpenBabel04252409583D

 76 79  0  0  1  0  0  0  0  0999 V2000
    9.2130    4.9445   -3.2308 C   0  0  0  0  0  0  0  0  0  0  0  0
    9.5673    3.9762   -2.1046 C   0  0  0  0  0  0  0  0  0  0  0  0
    9.3993    4.6996   -0.7878 C   0  0  0  0  0  0  0  0  0  0  0  0
   10.3387    4.9668   -0.0440 O   0  0  0  0  0  0  0  0  0  0  0  0
    8.6705    2.7329   -2.1645 C   0  0  0  0  0  0  0  0  0  0  0  0
    9.0537    1.6604   -1.1354 C   0  0  0  0  0  0  0  0  0  0  0  0
    8.1706    0.4002   -1.2154 C   0  0  0  0  0  0  0  0  0  0  0  0
    8.2335   -0.3785   -2.5611 C   0  0  1  0  0  0  0  0  0  0  0  0
    9.6282   -0.9947   -2.7186 C   0  0  0  0  0  0  0  0  0  0  0  0
    7.0808   -1.4347   -2.6740 C   0  0  1  0  0  0  0  0  0  0  0  0
    5.6975   -0.7664   -2.5032 C   0  0  0  0  0  0  0  0  0  0  0  0
    4.7419   -1.4002   -3.5045 C   0  0  0  0  0  0  0  0  0  0  0  0
    5.4282   -2.6714   -4.0187 C   0  0  1  0  0  0  0  0  0  0  0  0
    5.0435   -3.9537   -3.2022 C   0  0  2  0  0  0  0  0  0  0  0  0
    3.6079   -4.4392   -3.5591 C   0  0  2  0  0  0  0  0  0  0  0  0
    2.6106   -3.4970   -3.1829 O   0  0  0  0  0  0  0  0  0  0  0  0
    3.2260   -5.7709   -2.9114 C   0  0  0  0  0  0  0  0  0  0  0  0
    4.2531   -6.8549   -3.2185 C   0  0  2  0  0  0  0  0  0  0  0  0
    3.7954   -8.2217   -2.6951 C   0  0  0  0  0  0  0  0  0  0  0  0
    4.7813   -9.3188   -3.0910 C   0  0  2  0  0  0  0  0  0  0  0  0
    4.4004  -10.5472   -2.4813 O   0  0  0  0  0  0  0  0  0  0  0  0
    6.2060   -8.9849   -2.6651 C   0  0  0  0  0  0  0  0  0  0  0  0
    6.6492   -7.5999   -3.1415 C   0  0  0  0  0  0  0  0  0  0  0  0
    5.6771   -6.4539   -2.7301 C   0  0  1  0  0  0  0  0  0  0  0  0
    5.7447   -6.2835   -1.1920 C   0  0  0  0  0  0  0  0  0  0  0  0
    6.0585   -5.1091   -3.4563 C   0  0  1  0  0  0  0  0  0  0  0  0
    7.4775   -4.6211   -3.1454 C   0  0  0  0  0  0  0  0  0  0  0  0
    7.8588   -3.4880   -4.0862 C   0  0  0  0  0  0  0  0  0  0  0  0
    6.9392   -2.2566   -4.0039 C   0  0  2  0  0  0  0  0  0  0  0  0
    7.2271   -1.3743   -5.2470 C   0  0  0  0  0  0  0  0  0  0  0  0
    9.8334    5.8459   -3.1816 H   0  0  0  0  0  0  0  0  0  0  0  0
    8.1659    5.2626   -3.1686 H   0  0  0  0  0  0  0  0  0  0  0  0
    9.3688    4.4791   -4.2098 H   0  0  0  0  0  0  0  0  0  0  0  0
   10.6186    3.6814   -2.2051 H   0  0  0  0  0  0  0  0  0  0  0  0
    8.3703    5.0025   -0.5283 H   0  0  0  0  0  0  0  0  0  0  0  0
    8.7482    2.3178   -3.1747 H   0  0  0  0  0  0  0  0  0  0  0  0
    7.6211    3.0156   -2.0126 H   0  0  0  0  0  0  0  0  0  0  0  0
    8.9450    2.0763   -0.1259 H   0  0  0  0  0  0  0  0  0  0  0  0
   10.1115    1.4003   -1.2411 H   0  0  0  0  0  0  0  0  0  0  0  0
    7.1454    0.7162   -0.9972 H   0  0  0  0  0  0  0  0  0  0  0  0
    8.4562   -0.2765   -0.3994 H   0  0  0  0  0  0  0  0  0  0  0  0
    8.0924    0.3388   -3.3749 H   0  0  0  0  0  0  0  0  0  0  0  0
    9.7742   -1.8259   -2.0211 H   0  0  0  0  0  0  0  0  0  0  0  0
   10.4215   -0.2644   -2.5383 H   0  0  0  0  0  0  0  0  0  0  0  0
    9.7976   -1.3546   -3.7346 H   0  0  0  0  0  0  0  0  0  0  0  0
    7.2003   -2.1349   -1.8370 H   0  0  0  0  0  0  0  0  0  0  0  0
    5.7247    0.3153   -2.6760 H   0  0  0  0  0  0  0  0  0  0  0  0
    5.3359   -0.9244   -1.4799 H   0  0  0  0  0  0  0  0  0  0  0  0
    4.5826   -0.7072   -4.3400 H   0  0  0  0  0  0  0  0  0  0  0  0
    3.7637   -1.5432   -3.0487 H   0  0  0  0  0  0  0  0  0  0  0  0
    5.1138   -2.8514   -5.0557 H   0  0  0  0  0  0  0  0  0  0  0  0
    5.0621   -3.6788   -2.1400 H   0  0  0  0  0  0  0  0  0  0  0  0
    3.5354   -4.5529   -4.6480 H   0  0  0  0  0  0  0  0  0  0  0  0
    2.6473   -3.3936   -2.2165 H   0  0  0  0  0  0  0  0  0  0  0  0
    2.2387   -6.0720   -3.2868 H   0  0  0  0  0  0  0  0  0  0  0  0
    3.0906   -5.6457   -1.8302 H   0  0  0  0  0  0  0  0  0  0  0  0
    4.2934   -6.9481   -4.3153 H   0  0  0  0  0  0  0  0  0  0  0  0
    2.8078   -8.4697   -3.1058 H   0  0  0  0  0  0  0  0  0  0  0  0
    3.6557   -8.2084   -1.6075 H   0  0  0  0  0  0  0  0  0  0  0  0
    4.7550   -9.4651   -4.1777 H   0  0  0  0  0  0  0  0  0  0  0  0
    3.4992  -10.7571   -2.7809 H   0  0  0  0  0  0  0  0  0  0  0  0
    6.8905   -9.7453   -3.0620 H   0  0  0  0  0  0  0  0  0  0  0  0
    6.2990   -9.0622   -1.5749 H   0  0  0  0  0  0  0  0  0  0  0  0
    6.7433   -7.6223   -4.2353 H   0  0  0  0  0  0  0  0  0  0  0  0
    7.6546   -7.4184   -2.7456 H   0  0  0  0  0  0  0  0  0  0  0  0
    5.3993   -7.1739   -0.6592 H   0  0  0  0  0  0  0  0  0  0  0  0
    5.1358   -5.4493   -0.8342 H   0  0  0  0  0  0  0  0  0  0  0  0
    6.7726   -6.1008   -0.8605 H   0  0  0  0  0  0  0  0  0  0  0  0
    6.0279   -5.3253   -4.5360 H   0  0  0  0  0  0  0  0  0  0  0  0
    8.2074   -5.4229   -3.2911 H   0  0  0  0  0  0  0  0  0  0  0  0
    7.5663   -4.3018   -2.1022 H   0  0  0  0  0  0  0  0  0  0  0  0
    7.8410   -3.8826   -5.1117 H   0  0  0  0  0  0  0  0  0  0  0  0
    8.9012   -3.2259   -3.8984 H   0  0  0  0  0  0  0  0  0  0  0  0
    8.2902   -1.1342   -5.3387 H   0  0  0  0  0  0  0  0  0  0  0  0
    6.6793   -0.4271   -5.2238 H   0  0  0  0  0  0  0  0  0  0  0  0
    6.9405   -1.8949   -6.1682 H   0  0  0  0  0  0  0  0  0  0  0  0
  1  2  1  0  0  0  0
  1 31  1  0  0  0  0
  1 32  1  0  0  0  0
  1 33  1  0  0  0  0
  2  3  1  0  0  0  0
  2  5  1  0  0  0  0
  2 34  1  0  0  0  0
  3  4  2  0  0  0  0
  3 35  1  0  0  0  0
  5  6  1  0  0  0  0
  5 36  1  0  0  0  0
  5 37  1  0  0  0  0
  6  7  1  0  0  0  0
  6 38  1  0  0  0  0
  6 39  1  0  0  0  0
  7 40  1  0  0  0  0
  7 41  1  0  0  0  0
  8  9  1  0  0  0  0
  8  7  1  0  0  0  0
  8 42  1  6  0  0  0
  9 43  1  0  0  0  0
  9 44  1  0  0  0  0
  9 45  1  0  0  0  0
 10 11  1  0  0  0  0
 10 29  1  0  0  0  0
 10  8  1  0  0  0  0
 10 46  1  1  0  0  0
 11 12  1  0  0  0  0
 11 47  1  0  0  0  0
 11 48  1  0  0  0  0
 12 13  1  0  0  0  0
 12 49  1  0  0  0  0
 12 50  1  0  0  0  0
 13 14  1  0  0  0  0
 13 29  1  0  0  0  0
 13 51  1  1  0  0  0
 14 15  1  0  0  0  0
 14 26  1  0  0  0  0
 14 52  1  6  0  0  0
 15 17  1  0  0  0  0
 15 16  1  0  0  0  0
 15 53  1  6  0  0  0
 16 54  1  0  0  0  0
 17 18  1  0  0  0  0
 17 55  1  0  0  0  0
 17 56  1  0  0  0  0
 18 19  1  0  0  0  0
 18 24  1  0  0  0  0
 18 57  1  6  0  0  0
 19 20  1  0  0  0  0
 19 58  1  0  0  0  0
 19 59  1  0  0  0  0
 20 22  1  0  0  0  0
 20 21  1  0  0  0  0
 20 60  1  6  0  0  0
 21 61  1  0  0  0  0
 22 23  1  0  0  0  0
 22 62  1  0  0  0  0
 22 63  1  0  0  0  0
 23 24  1  0  0  0  0
 23 64  1  0  0  0  0
 23 65  1  0  0  0  0
 24 26  1  0  0  0  0
 24 25  1  6  0  0  0
 25 66  1  0  0  0  0
 25 67  1  0  0  0  0
 25 68  1  0  0  0  0
 26 27  1  0  0  0  0
 26 69  1  1  0  0  0
 27 28  1  0  0  0  0
 27 70  1  0  0  0  0
 27 71  1  0  0  0  0
 28 29  1  0  0  0  0
 28 72  1  0  0  0  0
 28 73  1  0  0  0  0
 29 30  1  6  0  0  0
 30 74  1  0  0  0  0
 30 75  1  0  0  0  0
 30 76  1  0  0  0  0
M  END
$$$$
