CHEBI:13769
 OpenBabel04242411433D

 16 16  0  0  0  0  0  0  0  0999 V2000
    1.1049    0.1222    0.3054 N   0  0  0  0  0  0  0  0  0  0  0  0
    2.4834    0.1293    0.0216 C   0  0  0  0  0  0  0  0  0  0  0  0
    3.1915    1.3326   -0.0033 C   0  0  0  0  0  0  0  0  0  0  0  0
    4.5772    1.3154   -0.1581 C   0  0  0  0  0  0  0  0  0  0  0  0
    5.3001    2.4717   -0.2059 O   0  0  0  0  0  0  0  0  0  0  0  0
    5.2752    0.1156   -0.2557 C   0  0  0  0  0  0  0  0  0  0  0  0
    4.5852   -1.0936   -0.1826 C   0  0  0  0  0  0  0  0  0  0  0  0
    3.2002   -1.0773   -0.0273 C   0  0  0  0  0  0  0  0  0  0  0  0
    2.4926   -2.2498    0.0515 O   0  0  0  0  0  0  0  0  0  0  0  0
    0.5949    0.8875   -0.1192 H   0  0  0  0  0  0  0  0  0  0  0  0
    0.7100   -0.7924    0.0846 H   0  0  0  0  0  0  0  0  0  0  0  0
    2.6571    2.2698    0.1062 H   0  0  0  0  0  0  0  0  0  0  0  0
    4.6923    3.2204   -0.0885 H   0  0  0  0  0  0  0  0  0  0  0  0
    6.3551    0.1252   -0.3737 H   0  0  0  0  0  0  0  0  0  0  0  0
    5.1371   -2.0252   -0.2448 H   0  0  0  0  0  0  0  0  0  0  0  0
    3.1273   -2.9823    0.1061 H   0  0  0  0  0  0  0  0  0  0  0  0
  1  2  1  0  0  0  0
  1 10  1  0  0  0  0
  1 11  1  0  0  0  0
  2  3  1  0  0  0  0
  2  8  2  0  0  0  0
  3  4  2  0  0  0  0
  3 12  1  0  0  0  0
  4  5  1  0  0  0  0
  4  6  1  0  0  0  0
  5 13  1  0  0  0  0
  6  7  2  0  0  0  0
  6 14  1  0  0  0  0
  7  8  1  0  0  0  0
  7 15  1  0  0  0  0
  8  9  1  0  0  0  0
  9 16  1  0  0  0  0
M  END
$$$$
