CHEBI:15783
 OpenBabel04242413153D

 22 22  0  0  0  0  0  0  0  0999 V2000
    1.0842    0.1525   -0.4773 C   0  0  0  0  0  0  0  0  0  0  0  0
    2.4278    0.1214    0.1004 N   0  0  0  0  0  0  0  0  0  0  0  0
    3.1636    1.3824    0.0491 C   0  0  0  0  0  0  0  0  0  0  0  0
    3.1355   -1.0865    0.0497 C   0  0  0  0  0  0  0  0  0  0  0  0
    4.5389   -1.1415    0.0513 C   0  0  0  0  0  0  0  0  0  0  0  0
    5.2411   -2.3571    0.0164 C   0  0  0  0  0  0  0  0  0  0  0  0
    4.5662   -3.5725    0.0389 C   0  0  0  0  0  0  0  0  0  0  0  0
    5.2612   -4.7758   -0.1204 N   0  0  0  0  0  0  0  0  0  0  0  0
    3.1770   -3.5458   -0.0084 C   0  0  0  0  0  0  0  0  0  0  0  0
    2.4786   -2.3283    0.0232 C   0  0  0  0  0  0  0  0  0  0  0  0
    0.6669    1.1658   -0.4576 H   0  0  0  0  0  0  0  0  0  0  0  0
    0.3890   -0.4691    0.0964 H   0  0  0  0  0  0  0  0  0  0  0  0
    1.0963   -0.1772   -1.5222 H   0  0  0  0  0  0  0  0  0  0  0  0
    2.4883    2.2362    0.1753 H   0  0  0  0  0  0  0  0  0  0  0  0
    3.6762    1.5024   -0.9116 H   0  0  0  0  0  0  0  0  0  0  0  0
    3.8902    1.4504    0.8663 H   0  0  0  0  0  0  0  0  0  0  0  0
    5.1354   -0.2349    0.0557 H   0  0  0  0  0  0  0  0  0  0  0  0
    6.3264   -2.3337   -0.0249 H   0  0  0  0  0  0  0  0  0  0  0  0
    6.2118   -4.7448    0.2340 H   0  0  0  0  0  0  0  0  0  0  0  0
    4.7516   -5.5855    0.2188 H   0  0  0  0  0  0  0  0  0  0  0  0
    2.6124   -4.4724   -0.0616 H   0  0  0  0  0  0  0  0  0  0  0  0
    1.3949   -2.3860    0.0300 H   0  0  0  0  0  0  0  0  0  0  0  0
  1  2  1  0  0  0  0
  1 11  1  0  0  0  0
  1 12  1  0  0  0  0
  1 13  1  0  0  0  0
  2  3  1  0  0  0  0
  2  4  1  0  0  0  0
  3 14  1  0  0  0  0
  3 15  1  0  0  0  0
  3 16  1  0  0  0  0
  4  5  1  0  0  0  0
  4 10  2  0  0  0  0
  5  6  2  0  0  0  0
  5 17  1  0  0  0  0
  6  7  1  0  0  0  0
  6 18  1  0  0  0  0
  7  8  1  0  0  0  0
  7  9  2  0  0  0  0
  8 19  1  0  0  0  0
  8 20  1  0  0  0  0
  9 10  1  0  0  0  0
  9 21  1  0  0  0  0
 10 22  1  0  0  0  0
M  END
$$$$
