CHEBI:15745
 OpenBabel04242413113D

 17 16  0  0  0  0  0  0  0  0999 V2000
    0.8200    0.0201   -0.3393 N   0  0  0  0  0  0  0  0  0  0  0  0
    2.1830   -0.1494   -0.0431 C   0  0  0  0  0  0  0  0  0  0  0  0
    3.1636    0.2449   -0.8784 C   0  0  0  0  0  0  0  0  0  0  0  0
    4.5966    0.1639   -0.6754 C   0  0  0  0  0  0  0  0  0  0  0  0
    5.5687    0.5932   -1.4948 C   0  0  0  0  0  0  0  0  0  0  0  0
    5.3951    1.2664   -2.7980 C   0  0  0  0  0  0  0  0  0  0  0  0
    6.3612    1.6032   -3.4719 O   0  0  0  0  0  0  0  0  0  0  0  0
    2.4702   -0.7545    1.3184 C   0  0  0  0  0  0  0  0  0  0  0  0
    3.4411   -1.4099    1.6423 O   0  0  0  0  0  0  0  0  0  0  0  0
    1.4234   -0.4851    2.1379 O   0  0  0  0  0  0  0  0  0  0  0  0
    0.6751    0.2831   -1.3146 H   0  0  0  0  0  0  0  0  0  0  0  0
    0.3148   -0.8547   -0.1623 H   0  0  0  0  0  0  0  0  0  0  0  0
    2.8464    0.6891   -1.8178 H   0  0  0  0  0  0  0  0  0  0  0  0
    4.9396   -0.3022    0.2483 H   0  0  0  0  0  0  0  0  0  0  0  0
    6.6090    0.4566   -1.2098 H   0  0  0  0  0  0  0  0  0  0  0  0
    4.3652    1.4539   -3.1334 H   0  0  0  0  0  0  0  0  0  0  0  0
    0.8013    0.1105    1.6632 H   0  0  0  0  0  0  0  0  0  0  0  0
  1  2  1  0  0  0  0
  1 11  1  0  0  0  0
  1 12  1  0  0  0  0
  2  3  2  0  0  0  0
  2  8  1  0  0  0  0
  3  4  1  0  0  0  0
  3 13  1  0  0  0  0
  4  5  2  0  0  0  0
  4 14  1  0  0  0  0
  5  6  1  0  0  0  0
  5 15  1  0  0  0  0
  6  7  2  0  0  0  0
  6 16  1  0  0  0  0
  8  9  2  0  0  0  0
  8 10  1  0  0  0  0
 10 17  1  0  0  0  0
M  END
$$$$
