CHEBI:17372
 OpenBabel04242416253D

 50 55  0  0  1  0  0  0  0  0999 V2000
    2.7835   -0.2528   -1.2458 C   0  0  0  0  0  0  0  0  0  0  0  0
    2.8331   -0.7301    0.1705 C   0  0  0  0  0  0  0  0  0  0  0  0
    1.7869   -0.9171    0.9964 C   0  0  0  0  0  0  0  0  0  0  0  0
    0.2905   -0.7669    0.6972 C   0  0  1  0  0  0  0  0  0  0  0  0
   -0.0264   -1.2296   -0.6013 O   0  0  0  0  0  0  0  0  0  0  0  0
   -0.4922   -1.5102    1.7122 N   0  0  0  0  0  0  0  0  0  0  0  0
    0.0572   -2.8924    1.7844 C   0  0  1  0  0  0  0  0  0  0  0  0
   -0.9166   -3.7359    2.5903 C   0  0  0  0  0  0  0  0  0  0  0  0
   -0.6395   -3.2459    4.0189 C   0  0  1  0  0  0  0  0  0  0  0  0
   -1.6154   -3.8460    4.9652 C   0  0  0  0  0  0  0  0  0  0  0  0
   -1.5834   -5.0379    5.6615 C   0  0  0  0  0  0  0  0  0  0  0  0
   -2.7106   -5.3803    6.4126 C   0  0  0  0  0  0  0  0  0  0  0  0
   -3.8452   -4.5475    6.4370 C   0  0  0  0  0  0  0  0  0  0  0  0
   -3.8701   -3.3438    5.7260 C   0  0  0  0  0  0  0  0  0  0  0  0
   -2.7364   -2.9833    5.0262 C   0  0  0  0  0  0  0  0  0  0  0  0
   -2.5949   -1.7972    4.2129 N   0  0  0  0  0  0  0  0  0  0  0  0
   -1.1245   -1.7219    4.1919 C   0  0  1  0  0  0  0  0  0  0  0  0
   -0.3777   -0.8656    3.1047 C   0  0  2  0  0  0  0  0  0  0  0  0
    1.0435   -0.2075    3.1706 C   0  0  0  0  0  0  0  0  0  0  0  0
    1.9672   -1.3066    2.4608 C   0  0  2  0  0  0  0  0  0  0  0  0
    1.3976   -2.8343    2.5982 C   0  0  0  0  0  0  0  0  0  0  0  0
    0.9301   -3.4151    4.0275 C   0  0  1  0  0  0  0  0  0  0  0  0
    1.5403   -2.7534    5.1393 O   0  0  0  0  0  0  0  0  0  0  0  0
    2.8319   -3.1079    5.3825 C   0  0  0  0  0  0  0  0  0  0  0  0
    3.3469   -2.3811    6.5862 C   0  0  0  0  0  0  0  0  0  0  0  0
    3.4936   -3.8778    4.7022 O   0  0  0  0  0  0  0  0  0  0  0  0
    3.5348    0.5305   -1.3917 H   0  0  0  0  0  0  0  0  0  0  0  0
    1.8172    0.1773   -1.5196 H   0  0  0  0  0  0  0  0  0  0  0  0
    3.0128   -1.0761   -1.9284 H   0  0  0  0  0  0  0  0  0  0  0  0
    3.8379   -0.8965    0.5569 H   0  0  0  0  0  0  0  0  0  0  0  0
    0.0025    0.2902    0.7230 H   0  0  0  0  0  0  0  0  0  0  0  0
    0.5331   -2.0020   -0.7644 H   0  0  0  0  0  0  0  0  0  0  0  0
    0.1900   -3.3467    0.7969 H   0  0  0  0  0  0  0  0  0  0  0  0
   -0.6850   -4.8046    2.4874 H   0  0  0  0  0  0  0  0  0  0  0  0
   -1.9529   -3.6029    2.2564 H   0  0  0  0  0  0  0  0  0  0  0  0
   -0.7272   -5.7016    5.6152 H   0  0  0  0  0  0  0  0  0  0  0  0
   -2.7229   -6.3148    6.9693 H   0  0  0  0  0  0  0  0  0  0  0  0
   -4.7191   -4.8503    7.0091 H   0  0  0  0  0  0  0  0  0  0  0  0
   -4.7521   -2.7142    5.7308 H   0  0  0  0  0  0  0  0  0  0  0  0
   -3.0593   -1.0066    4.6508 H   0  0  0  0  0  0  0  0  0  0  0  0
   -0.8300   -1.3298    5.1874 H   0  0  0  0  0  0  0  0  0  0  0  0
    0.3089   -1.4469    3.6656 H   0  0  0  0  0  0  0  0  0  0  0  0
    1.3773   -0.0203    4.2058 H   0  0  0  0  0  0  0  0  0  0  0  0
    1.0693    0.7732    2.6781 H   0  0  0  0  0  0  0  0  0  0  0  0
    3.0008   -1.2319    2.8116 H   0  0  0  0  0  0  0  0  0  0  0  0
    2.1332   -3.5188    2.1579 H   0  0  0  0  0  0  0  0  0  0  0  0
    1.1529   -4.4910    4.0717 H   0  0  0  0  0  0  0  0  0  0  0  0
    3.5308   -1.3345    6.3332 H   0  0  0  0  0  0  0  0  0  0  0  0
    4.2814   -2.8440    6.9157 H   0  0  0  0  0  0  0  0  0  0  0  0
    2.6263   -2.4561    7.4051 H   0  0  0  0  0  0  0  0  0  0  0  0
  1  2  1  0  0  0  0
  1 27  1  0  0  0  0
  1 28  1  0  0  0  0
  1 29  1  0  0  0  0
  2  3  2  0  0  0  0
  2 30  1  0  0  0  0
  3  4  1  0  0  0  0
  3 20  1  0  0  0  0
  4  6  1  0  0  0  0
  4  5  1  0  0  0  0
  4 31  1  1  0  0  0
  5 32  1  0  0  0  0
  6  7  1  0  0  0  0
  6 18  1  0  0  0  0
  7  8  1  0  0  0  0
  7 21  1  0  0  0  0
  7 33  1  1  0  0  0
  8  9  1  0  0  0  0
  8 34  1  0  0  0  0
  8 35  1  0  0  0  0
  9 10  1  6  0  0  0
  9 17  1  0  0  0  0
  9 22  1  0  0  0  0
 10 11  1  0  0  0  0
 10 15  2  0  0  0  0
 11 12  2  0  0  0  0
 11 36  1  0  0  0  0
 12 13  1  0  0  0  0
 12 37  1  0  0  0  0
 13 14  2  0  0  0  0
 13 38  1  0  0  0  0
 14 15  1  0  0  0  0
 14 39  1  0  0  0  0
 15 16  1  0  0  0  0
 16 17  1  0  0  0  0
 16 40  1  0  0  0  0
 17 18  1  0  0  0  0
 17 41  1  6  0  0  0
 18 19  1  0  0  0  0
 18 42  1  1  0  0  0
 19 20  1  0  0  0  0
 19 43  1  0  0  0  0
 19 44  1  0  0  0  0
 20 21  1  0  0  0  0
 20 45  1  6  0  0  0
 21 22  1  0  0  0  0
 21 46  1  0  0  0  0
 22 23  1  0  0  0  0
 22 47  1  1  0  0  0
 23 24  1  0  0  0  0
 24 25  1  0  0  0  0
 24 26  2  0  0  0  0
 25 48  1  0  0  0  0
 25 49  1  0  0  0  0
 25 50  1  0  0  0  0
M  END
$$$$
