CHEBI:18157
 OpenBabel04242423383D

 75 74  0  0  1  0  0  0  0  0999 V2000
    2.8670    7.3059   -7.4931 C   0  0  0  0  0  0  0  0  0  0  0  0
    2.5159    6.7892   -6.1224 C   0  0  0  0  0  0  0  0  0  0  0  0
    1.8076    7.4489   -5.3567 O   0  0  0  0  0  0  0  0  0  0  0  0
    3.0744    5.5793   -5.7467 N   0  0  0  0  0  0  0  0  0  0  0  0
    3.7078    4.8349   -6.7665 O   0  0  0  0  0  0  0  0  0  0  0  0
    2.3682    4.7029   -4.8170 C   0  0  0  0  0  0  0  0  0  0  0  0
    3.2937    4.0786   -3.7770 C   0  0  0  0  0  0  0  0  0  0  0  0
    2.4802    3.2806   -2.7515 C   0  0  0  0  0  0  0  0  0  0  0  0
    3.3815    2.6143   -1.7130 C   0  0  0  0  0  0  0  0  0  0  0  0
    2.6133    1.6928   -0.7517 C   0  0  2  0  0  0  0  0  0  0  0  0
    1.5306    2.3364    0.0076 N   0  0  0  0  0  0  0  0  0  0  0  0
    1.6772    3.4204    0.8356 C   0  0  0  0  0  0  0  0  0  0  0  0
    2.7874    3.9023    1.0394 O   0  0  0  0  0  0  0  0  0  0  0  0
    0.4209    3.7987    1.5957 C   0  0  0  0  0  0  0  0  0  0  0  0
    0.3509    5.2620    2.0530 C   0  0  0  0  0  0  0  0  0  0  0  0
    1.3517    5.4779    3.0793 O   0  0  0  0  0  0  0  0  0  0  0  0
    0.5871    6.3327    0.9840 C   0  0  0  0  0  0  0  0  0  0  0  0
   -0.3586    6.2638   -0.1969 C   0  0  0  0  0  0  0  0  0  0  0  0
   -0.8561    5.2206   -0.6072 O   0  0  0  0  0  0  0  0  0  0  0  0
   -0.5592    7.4897   -0.8015 N   0  0  0  0  0  0  0  0  0  0  0  0
   -1.3430    7.5641   -2.0340 C   0  0  1  0  0  0  0  0  0  0  0  0
   -1.8342    9.0011   -2.3095 C   0  0  0  0  0  0  0  0  0  0  0  0
   -0.6982   10.0134   -2.5493 C   0  0  0  0  0  0  0  0  0  0  0  0
   -1.1696   11.3912   -3.0242 C   0  0  0  0  0  0  0  0  0  0  0  0
   -1.6822   11.4254   -4.4696 C   0  0  0  0  0  0  0  0  0  0  0  0
   -0.6781   10.9691   -5.4283 N   0  0  0  0  0  0  0  0  0  0  0  0
    0.3466   11.9374   -5.6091 O   0  0  0  0  0  0  0  0  0  0  0  0
   -0.7812   10.0676   -6.4621 C   0  0  0  0  0  0  0  0  0  0  0  0
   -1.8988    9.0623   -6.4320 C   0  0  0  0  0  0  0  0  0  0  0  0
    0.0295   10.0880   -7.3948 O   0  0  0  0  0  0  0  0  0  0  0  0
   -0.5238    7.0992   -3.2351 C   0  0  0  0  0  0  0  0  0  0  0  0
   -0.9811    6.8022   -4.3314 O   0  0  0  0  0  0  0  0  0  0  0  0
    0.8041    7.2787   -3.0444 O   0  0  0  0  0  0  0  0  0  0  0  0
   -0.9856    5.4526    2.7852 C   0  0  0  0  0  0  0  0  0  0  0  0
   -1.1992    5.0687    3.9287 O   0  0  0  0  0  0  0  0  0  0  0  0
   -1.9610    6.0558    2.0905 O   0  0  0  0  0  0  0  0  0  0  0  0
    3.6216    0.9379    0.1321 C   0  0  0  0  0  0  0  0  0  0  0  0
    4.0554   -0.1717   -0.1542 O   0  0  0  0  0  0  0  0  0  0  0  0
    4.0936    1.6328    1.1912 O   0  0  0  0  0  0  0  0  0  0  0  0
    2.2494    8.1816   -7.7160 H   0  0  0  0  0  0  0  0  0  0  0  0
    2.6537    6.5499   -8.2536 H   0  0  0  0  0  0  0  0  0  0  0  0
    3.9198    7.5942   -7.5261 H   0  0  0  0  0  0  0  0  0  0  0  0
    4.6472    4.9331   -6.5206 H   0  0  0  0  0  0  0  0  0  0  0  0
    1.5850    5.2632   -4.3056 H   0  0  0  0  0  0  0  0  0  0  0  0
    1.8613    3.9265   -5.4019 H   0  0  0  0  0  0  0  0  0  0  0  0
    3.8647    4.8638   -3.2656 H   0  0  0  0  0  0  0  0  0  0  0  0
    4.0226    3.4269   -4.2732 H   0  0  0  0  0  0  0  0  0  0  0  0
    1.8889    2.5169   -3.2705 H   0  0  0  0  0  0  0  0  0  0  0  0
    1.7736    3.9522   -2.2488 H   0  0  0  0  0  0  0  0  0  0  0  0
    3.9330    3.3829   -1.1592 H   0  0  0  0  0  0  0  0  0  0  0  0
    4.1429    2.0177   -2.2335 H   0  0  0  0  0  0  0  0  0  0  0  0
    2.1032    0.9200   -1.3422 H   0  0  0  0  0  0  0  0  0  0  0  0
    0.5950    1.9779   -0.1489 H   0  0  0  0  0  0  0  0  0  0  0  0
    0.4104    3.1424    2.4778 H   0  0  0  0  0  0  0  0  0  0  0  0
   -0.4629    3.5232    1.0109 H   0  0  0  0  0  0  0  0  0  0  0  0
    1.0655    4.9897    3.8769 H   0  0  0  0  0  0  0  0  0  0  0  0
    1.6098    6.2716    0.5929 H   0  0  0  0  0  0  0  0  0  0  0  0
    0.5053    7.3257    1.4468 H   0  0  0  0  0  0  0  0  0  0  0  0
    0.2232    8.1308   -0.7379 H   0  0  0  0  0  0  0  0  0  0  0  0
   -2.1998    6.8870   -1.9345 H   0  0  0  0  0  0  0  0  0  0  0  0
   -2.4417    9.3453   -1.4637 H   0  0  0  0  0  0  0  0  0  0  0  0
   -2.4959    8.9774   -3.1814 H   0  0  0  0  0  0  0  0  0  0  0  0
    0.0222    9.6309   -3.2780 H   0  0  0  0  0  0  0  0  0  0  0  0
   -0.1442   10.1475   -1.6129 H   0  0  0  0  0  0  0  0  0  0  0  0
   -0.3193   12.0805   -2.9393 H   0  0  0  0  0  0  0  0  0  0  0  0
   -1.9472   11.7688   -2.3508 H   0  0  0  0  0  0  0  0  0  0  0  0
   -1.9365   12.4593   -4.7341 H   0  0  0  0  0  0  0  0  0  0  0  0
   -2.6009   10.8445   -4.5671 H   0  0  0  0  0  0  0  0  0  0  0  0
    0.7556   11.6390   -6.4522 H   0  0  0  0  0  0  0  0  0  0  0  0
   -2.3621    8.9712   -5.4513 H   0  0  0  0  0  0  0  0  0  0  0  0
   -1.4938    8.0804   -6.6936 H   0  0  0  0  0  0  0  0  0  0  0  0
   -2.6588    9.3477   -7.1634 H   0  0  0  0  0  0  0  0  0  0  0  0
    1.1807    7.3240   -3.9642 H   0  0  0  0  0  0  0  0  0  0  0  0
   -2.7304    6.0746    2.6984 H   0  0  0  0  0  0  0  0  0  0  0  0
    3.7636    2.5646    1.2211 H   0  0  0  0  0  0  0  0  0  0  0  0
  1  2  1  0  0  0  0
  1 40  1  0  0  0  0
  1 41  1  0  0  0  0
  1 42  1  0  0  0  0
  2  3  2  0  0  0  0
  2  4  1  0  0  0  0
  4  5  1  0  0  0  0
  4  6  1  0  0  0  0
  5 43  1  0  0  0  0
  6  7  1  0  0  0  0
  6 44  1  0  0  0  0
  6 45  1  0  0  0  0
  7  8  1  0  0  0  0
  7 46  1  0  0  0  0
  7 47  1  0  0  0  0
  8  9  1  0  0  0  0
  8 48  1  0  0  0  0
  8 49  1  0  0  0  0
  9 50  1  0  0  0  0
  9 51  1  0  0  0  0
 10 37  1  0  0  0  0
 10 11  1  0  0  0  0
 10  9  1  0  0  0  0
 10 52  1  6  0  0  0
 11 12  1  0  0  0  0
 11 53  1  0  0  0  0
 12 13  2  0  0  0  0
 12 14  1  0  0  0  0
 14 15  1  0  0  0  0
 14 54  1  0  0  0  0
 14 55  1  0  0  0  0
 15 16  1  0  0  0  0
 15 17  1  0  0  0  0
 15 34  1  0  0  0  0
 16 56  1  0  0  0  0
 17 18  1  0  0  0  0
 17 57  1  0  0  0  0
 17 58  1  0  0  0  0
 18 19  2  0  0  0  0
 18 20  1  0  0  0  0
 20 21  1  0  0  0  0
 20 59  1  0  0  0  0
 21 22  1  0  0  0  0
 21 31  1  0  0  0  0
 21 60  1  1  0  0  0
 22 23  1  0  0  0  0
 22 61  1  0  0  0  0
 22 62  1  0  0  0  0
 23 24  1  0  0  0  0
 23 63  1  0  0  0  0
 23 64  1  0  0  0  0
 24 25  1  0  0  0  0
 24 65  1  0  0  0  0
 24 66  1  0  0  0  0
 25 26  1  0  0  0  0
 25 67  1  0  0  0  0
 25 68  1  0  0  0  0
 26 27  1  0  0  0  0
 26 28  1  0  0  0  0
 27 69  1  0  0  0  0
 28 29  1  0  0  0  0
 28 30  2  0  0  0  0
 29 70  1  0  0  0  0
 29 71  1  0  0  0  0
 29 72  1  0  0  0  0
 31 32  2  0  0  0  0
 31 33  1  0  0  0  0
 33 73  1  0  0  0  0
 34 35  2  0  0  0  0
 34 36  1  0  0  0  0
 36 74  1  0  0  0  0
 37 38  2  0  0  0  0
 37 39  1  0  0  0  0
 39 75  1  0  0  0  0
M  END
$$$$
