CHEBI:27380
 OpenBabel04252409433D

 24 24  0  0  1  0  0  0  0  0999 V2000
    1.0765   -0.1644    0.4088 H   0  0  0  0  0  0  0  0  0  0  0  0
    2.0483   -0.1799    0.3652 O   0  0  0  0  0  0  0  0  0  0  0  0
    2.4522    1.0443    0.9625 C   0  0  2  0  0  0  0  0  0  0  0  0
    1.8495    2.1109    0.2450 O   0  0  0  0  0  0  0  0  0  0  0  0
    2.2134    3.3928    0.7791 C   0  0  2  0  0  0  0  0  0  0  0  0
    1.4562    4.4891    0.0168 C   0  0  0  0  0  0  0  0  0  0  0  0
    1.6043    5.7645    0.6318 O   0  0  0  0  0  0  0  0  0  0  0  0
    3.7353    3.6034    0.6831 C   0  0  1  0  0  0  0  0  0  0  0  0
    4.1225    4.8625    1.2452 O   0  0  0  0  0  0  0  0  0  0  0  0
    4.4563    2.4710    1.4171 C   0  0  2  0  0  0  0  0  0  0  0  0
    5.8720    2.6212    1.2317 O   0  0  0  0  0  0  0  0  0  0  0  0
    3.9863    1.1183    0.8905 C   0  0  1  0  0  0  0  0  0  0  0  0
    4.5979    0.0745    1.6623 O   0  0  0  0  0  0  0  0  0  0  0  0
    2.1036    1.0334    2.0025 H   0  0  0  0  0  0  0  0  0  0  0  0
    1.9032    3.4480    1.8319 H   0  0  0  0  0  0  0  0  0  0  0  0
    0.3872    4.2537   -0.0207 H   0  0  0  0  0  0  0  0  0  0  0  0
    1.8008    4.5551   -1.0211 H   0  0  0  0  0  0  0  0  0  0  0  0
    2.5523    5.8594    0.8686 H   0  0  0  0  0  0  0  0  0  0  0  0
    4.0517    3.6110   -0.3677 H   0  0  0  0  0  0  0  0  0  0  0  0
    5.0993    4.8133    1.3223 H   0  0  0  0  0  0  0  0  0  0  0  0
    4.2895    2.5470    2.4988 H   0  0  0  0  0  0  0  0  0  0  0  0
    6.2624    1.7832    1.5549 H   0  0  0  0  0  0  0  0  0  0  0  0
    4.3299    0.9815   -0.1426 H   0  0  0  0  0  0  0  0  0  0  0  0
    4.1787   -0.7521    1.3466 H   0  0  0  0  0  0  0  0  0  0  0  0
  1  2  1  0  0  0  0
  2  3  1  0  0  0  0
  3  4  1  0  0  0  0
  3 12  1  0  0  0  0
  3 14  1  1  0  0  0
  4  5  1  0  0  0  0
  5  6  1  0  0  0  0
  5  8  1  0  0  0  0
  5 15  1  1  0  0  0
  6  7  1  0  0  0  0
  6 16  1  0  0  0  0
  6 17  1  0  0  0  0
  7 18  1  0  0  0  0
  8  9  1  0  0  0  0
  8 10  1  0  0  0  0
  8 19  1  6  0  0  0
  9 20  1  0  0  0  0
 10 11  1  0  0  0  0
 10 12  1  0  0  0  0
 10 21  1  1  0  0  0
 11 22  1  0  0  0  0
 12 13  1  0  0  0  0
 12 23  1  6  0  0  0
 13 24  1  0  0  0  0
M  END
$$$$
