CHEBI:8927
 OpenBabel04242411163D

 51 51  0  0  1  0  0  0  0  0999 V2000
    0.9217   -0.8050   -0.3625 N   0  0  0  0  0  0  0  0  0  0  0  0
    2.3302   -0.8301   -0.8054 C   0  0  1  0  0  0  0  0  0  0  0  0
    2.7223   -2.2050   -1.3604 C   0  0  0  0  0  0  0  0  0  0  0  0
    2.6328   -3.3080   -0.3044 C   0  0  0  0  0  0  0  0  0  0  0  0
    3.0359   -4.6631   -0.8485 C   0  0  0  0  0  0  0  0  0  0  0  0
    3.3261   -4.8820   -2.0187 O   0  0  0  0  0  0  0  0  0  0  0  0
    3.0336   -5.6489    0.1063 N   0  0  0  0  0  0  0  0  0  0  0  0
    3.4371   -7.0217   -0.1853 C   0  0  1  0  0  0  0  0  0  0  0  0
    4.9475   -7.1673   -0.4582 C   0  0  0  0  0  0  0  0  0  0  0  0
    5.9789   -6.5250    0.9239 S   0  0  0  0  0  0  0  0  0  0  0  0
    7.6268   -6.7965    0.2922 C   0  0  0  0  0  0  0  0  0  0  0  0
    8.3921   -7.7736    0.9523 C   0  0  0  0  0  0  0  0  0  0  0  0
    9.7224   -8.0226    0.5896 C   0  0  0  0  0  0  0  0  0  0  0  0
   10.3084   -7.2823   -0.4436 C   0  0  0  0  0  0  0  0  0  0  0  0
   11.7108   -7.5162   -0.7958 N   0  3  0  0  0  0  0  0  0  0  0  0
   12.1996   -8.6134   -0.4962 O   0  0  0  0  0  0  0  0  0  0  0  0
   12.3139   -6.5981   -1.3665 O   0  5  0  0  0  0  0  0  0  0  0  0
    9.5773   -6.3073   -1.1258 C   0  0  0  0  0  0  0  0  0  0  0  0
    8.2469   -6.0750   -0.7406 C   0  0  0  0  0  0  0  0  0  0  0  0
    7.5376   -5.0367   -1.4597 N   0  3  0  0  0  0  0  0  0  0  0  0
    7.2444   -4.0089   -0.8376 O   0  0  0  0  0  0  0  0  0  0  0  0
    7.3344   -5.2471   -2.6622 O   0  5  0  0  0  0  0  0  0  0  0  0
    2.9861   -7.9222    0.9815 C   0  0  0  0  0  0  0  0  0  0  0  0
    2.6044   -7.4625    2.0573 O   0  0  0  0  0  0  0  0  0  0  0  0
    3.0715   -9.2779    0.7370 N   0  0  0  0  0  0  0  0  0  0  0  0
    2.6081  -10.2341    1.7365 C   0  0  0  0  0  0  0  0  0  0  0  0
    1.1618  -10.6621    1.5330 C   0  0  0  0  0  0  0  0  0  0  0  0
    0.5161  -11.3766    2.2845 O   0  0  0  0  0  0  0  0  0  0  0  0
    0.6298  -10.2606    0.3574 O   0  0  0  0  0  0  0  0  0  0  0  0
    2.5473    0.2740   -1.8547 C   0  0  0  0  0  0  0  0  0  0  0  0
    2.4296    0.1316   -3.0644 O   0  0  0  0  0  0  0  0  0  0  0  0
    2.7783    1.4869   -1.2919 O   0  0  0  0  0  0  0  0  0  0  0  0
    0.3380   -1.1133   -1.1466 H   0  0  0  0  0  0  0  0  0  0  0  0
    0.6235    0.1547   -0.1841 H   0  0  0  0  0  0  0  0  0  0  0  0
    2.9752   -0.6124    0.0542 H   0  0  0  0  0  0  0  0  0  0  0  0
    3.7494   -2.1563   -1.7465 H   0  0  0  0  0  0  0  0  0  0  0  0
    2.0920   -2.4627   -2.2218 H   0  0  0  0  0  0  0  0  0  0  0  0
    1.6075   -3.3963    0.0724 H   0  0  0  0  0  0  0  0  0  0  0  0
    3.2895   -3.0665    0.5399 H   0  0  0  0  0  0  0  0  0  0  0  0
    2.8356   -5.4266    1.0785 H   0  0  0  0  0  0  0  0  0  0  0  0
    2.8836   -7.3371   -1.0791 H   0  0  0  0  0  0  0  0  0  0  0  0
    5.2079   -6.6220   -1.3691 H   0  0  0  0  0  0  0  0  0  0  0  0
    5.2090   -8.2187   -0.6183 H   0  0  0  0  0  0  0  0  0  0  0  0
    7.9627   -8.3458    1.7754 H   0  0  0  0  0  0  0  0  0  0  0  0
   10.2891   -8.7785    1.1323 H   0  0  0  0  0  0  0  0  0  0  0  0
   10.0269   -5.7276   -1.9312 H   0  0  0  0  0  0  0  0  0  0  0  0
    2.9861   -9.5778   -0.2274 H   0  0  0  0  0  0  0  0  0  0  0  0
    2.7127   -9.8108    2.7395 H   0  0  0  0  0  0  0  0  0  0  0  0
    3.2390  -11.1218    1.6366 H   0  0  0  0  0  0  0  0  0  0  0  0
   -0.2850  -10.6156    0.3855 H   0  0  0  0  0  0  0  0  0  0  0  0
    2.8194    1.4613   -0.3165 H   0  0  0  0  0  0  0  0  0  0  0  0
  1  2  1  0  0  0  0
  1 33  1  0  0  0  0
  1 34  1  0  0  0  0
  2  3  1  0  0  0  0
  2 30  1  0  0  0  0
  2 35  1  1  0  0  0
  3  4  1  0  0  0  0
  3 36  1  0  0  0  0
  3 37  1  0  0  0  0
  4  5  1  0  0  0  0
  4 38  1  0  0  0  0
  4 39  1  0  0  0  0
  5  6  2  0  0  0  0
  5  7  1  0  0  0  0
  7  8  1  0  0  0  0
  7 40  1  0  0  0  0
  8  9  1  0  0  0  0
  8 23  1  0  0  0  0
  8 41  1  6  0  0  0
  9 10  1  0  0  0  0
  9 42  1  0  0  0  0
  9 43  1  0  0  0  0
 10 11  1  0  0  0  0
 11 12  1  0  0  0  0
 11 19  2  0  0  0  0
 12 13  2  0  0  0  0
 12 44  1  0  0  0  0
 13 14  1  0  0  0  0
 13 45  1  0  0  0  0
 14 15  1  0  0  0  0
 14 18  2  0  0  0  0
 15 16  2  0  0  0  0
 15 17  1  0  0  0  0
 18 19  1  0  0  0  0
 18 46  1  0  0  0  0
 19 20  1  0  0  0  0
 20 21  2  0  0  0  0
 20 22  1  0  0  0  0
 23 24  2  0  0  0  0
 23 25  1  0  0  0  0
 25 26  1  0  0  0  0
 25 47  1  0  0  0  0
 26 27  1  0  0  0  0
 26 48  1  0  0  0  0
 26 49  1  0  0  0  0
 27 28  2  0  0  0  0
 27 29  1  0  0  0  0
 29 50  1  0  0  0  0
 30 31  2  0  0  0  0
 30 32  1  0  0  0  0
 32 51  1  0  0  0  0
M  CHG  4  15   1  17  -1  20   1  22  -1
M  END
$$$$
