CHEBI:18337
 OpenBabel04252409253D

 38 39  0  0  1  0  0  0  0  0999 V2000
    0.9271    0.2713   -2.6127 N   0  0  0  0  0  0  0  0  0  0  0  0
    0.4748    1.4309   -3.2479 C   0  0  0  0  0  0  0  0  0  0  0  0
   -0.4187    2.2926   -2.7136 C   0  0  0  0  0  0  0  0  0  0  0  0
   -1.0428    2.0353   -1.4973 N   0  0  0  0  0  0  0  0  0  0  0  0
   -0.4484    2.5253   -0.2597 C   0  0  2  0  0  0  0  0  0  0  0  0
    0.4652    1.5270    0.2136 O   0  0  0  0  0  0  0  0  0  0  0  0
    0.2013    1.3101    1.6257 C   0  0  2  0  0  0  0  0  0  0  0  0
   -0.3447   -0.1104    1.8016 C   0  0  0  0  0  0  0  0  0  0  0  0
   -1.5004   -0.3035    0.9985 O   0  0  0  0  0  0  0  0  0  0  0  0
   -2.3425   -1.6489    1.1854 P   0  0  0  0  0  0  0  0  0  0  0  0
   -3.4715   -1.8472    0.2371 O   0  0  0  0  0  0  0  0  0  0  0  0
   -1.2767   -2.8329    1.1418 O   0  0  0  0  0  0  0  0  0  0  0  0
   -2.8105   -1.6426    2.7094 O   0  0  0  0  0  0  0  0  0  0  0  0
   -0.7726    2.3999    2.0717 C   0  0  1  0  0  0  0  0  0  0  0  0
   -0.0409    3.5672    2.4782 O   0  0  0  0  0  0  0  0  0  0  0  0
   -1.5379    2.7122    0.8050 C   0  0  1  0  0  0  0  0  0  0  0  0
   -2.0873    4.0321    0.8425 O   0  0  0  0  0  0  0  0  0  0  0  0
   -0.7602    3.4252   -3.3911 N   0  0  0  0  0  0  0  0  0  0  0  0
   -0.2878    3.7768   -4.6188 C   0  0  0  0  0  0  0  0  0  0  0  0
   -0.6418    4.8103   -5.1790 O   0  0  0  0  0  0  0  0  0  0  0  0
    0.6041    2.9178   -5.1817 N   0  0  0  0  0  0  0  0  0  0  0  0
    1.0766    1.7887   -4.5807 C   0  0  0  0  0  0  0  0  0  0  0  0
    1.9717    1.1048   -5.0728 O   0  0  0  0  0  0  0  0  0  0  0  0
    1.0520    0.4469   -1.6124 H   0  0  0  0  0  0  0  0  0  0  0  0
    1.8043   -0.0295   -3.0468 H   0  0  0  0  0  0  0  0  0  0  0  0
   -1.0537    1.0158   -1.3838 H   0  0  0  0  0  0  0  0  0  0  0  0
    0.1004    3.4605   -0.4281 H   0  0  0  0  0  0  0  0  0  0  0  0
    1.1571    1.3956    2.1544 H   0  0  0  0  0  0  0  0  0  0  0  0
   -0.5810   -0.2967    2.8541 H   0  0  0  0  0  0  0  0  0  0  0  0
    0.4132   -0.8302    1.4755 H   0  0  0  0  0  0  0  0  0  0  0  0
   -1.1822   -3.1843    0.2364 H   0  0  0  0  0  0  0  0  0  0  0  0
   -3.5879   -2.2189    2.8282 H   0  0  0  0  0  0  0  0  0  0  0  0
   -1.4126    2.1121    2.9105 H   0  0  0  0  0  0  0  0  0  0  0  0
   -0.6637    4.3150    2.3569 H   0  0  0  0  0  0  0  0  0  0  0  0
   -2.3646    2.0064    0.6692 H   0  0  0  0  0  0  0  0  0  0  0  0
   -2.5324    4.1577   -0.0171 H   0  0  0  0  0  0  0  0  0  0  0  0
   -1.4546    4.0354   -2.9855 H   0  0  0  0  0  0  0  0  0  0  0  0
    0.9955    3.1738   -6.0737 H   0  0  0  0  0  0  0  0  0  0  0  0
  1  2  1  0  0  0  0
  1 24  1  0  0  0  0
  1 25  1  0  0  0  0
  2  3  2  0  0  0  0
  2 22  1  0  0  0  0
  3  4  1  0  0  0  0
  3 18  1  0  0  0  0
  4  5  1  0  0  0  0
  4 26  1  0  0  0  0
  5  6  1  0  0  0  0
  5 16  1  0  0  0  0
  5 27  1  6  0  0  0
  6  7  1  0  0  0  0
  7  8  1  0  0  0  0
  7 14  1  0  0  0  0
  7 28  1  1  0  0  0
  8  9  1  0  0  0  0
  8 29  1  0  0  0  0
  8 30  1  0  0  0  0
  9 10  1  0  0  0  0
 10 11  2  0  0  0  0
 10 12  1  0  0  0  0
 10 13  1  0  0  0  0
 12 31  1  0  0  0  0
 13 32  1  0  0  0  0
 14 15  1  0  0  0  0
 14 16  1  0  0  0  0
 14 33  1  1  0  0  0
 15 34  1  0  0  0  0
 16 17  1  0  0  0  0
 16 35  1  6  0  0  0
 17 36  1  0  0  0  0
 18 19  1  0  0  0  0
 18 37  1  0  0  0  0
 19 20  2  0  0  0  0
 19 21  1  0  0  0  0
 21 22  1  0  0  0  0
 21 38  1  0  0  0  0
 22 23  2  0  0  0  0
M  END
$$$$
