CHEBI:15877
 OpenBabel04242413243D

 39 40  0  0  1  0  0  0  0  0999 V2000
    9.3905    2.6952    2.3871 C   0  0  0  0  0  0  0  0  0  0  0  0
   10.2837    2.8203    3.5936 C   0  0  0  0  0  0  0  0  0  0  0  0
    9.8852    3.2538    4.8086 C   0  0  0  0  0  0  0  0  0  0  0  0
    8.5233    3.7367    5.2266 C   0  0  0  0  0  0  0  0  0  0  0  0
    8.0284    2.8244    6.2403 N   0  0  0  0  0  0  0  0  0  0  0  0
    6.8889    3.2682    6.9285 C   0  0  0  0  0  0  0  0  0  0  0  0
    6.7780    2.8523    8.2179 N   0  0  0  0  0  0  0  0  0  0  0  0
    5.7016    3.2480    8.9328 C   0  0  0  0  0  0  0  0  0  0  0  0
    4.6863    4.0424    8.5519 N   0  0  0  0  0  0  0  0  0  0  0  0
    4.8366    4.4415    7.2769 C   0  0  0  0  0  0  0  0  0  0  0  0
    5.8705    4.1037    6.4163 C   0  0  0  0  0  0  0  0  0  0  0  0
    5.6862    4.6943    5.1846 N   0  0  0  0  0  0  0  0  0  0  0  0
    4.5532    5.3591    5.2896 C   0  0  0  0  0  0  0  0  0  0  0  0
    4.0114    5.2600    6.5436 N   0  0  0  0  0  0  0  0  0  0  0  0
    2.7588    5.8332    7.0128 C   0  0  0  0  0  0  0  0  0  0  0  0
    2.5335    7.3078    6.6599 C   0  0  2  0  0  0  0  0  0  0  0  0
    1.5967    7.9614    7.6430 N   0  0  0  0  0  0  0  0  0  0  0  0
    1.8242    7.3261    5.2639 C   0  0  0  0  0  0  0  0  0  0  0  0
    0.6212    6.9329    5.2802 O   0  0  0  0  0  0  0  0  0  0  0  0
    2.5210    7.7730    4.3122 O   0  5  0  0  0  0  0  0  0  0  0  0
   11.7217    2.4415    3.3494 C   0  0  0  0  0  0  0  0  0  0  0  0
   11.8117    1.0477    3.0946 O   0  0  0  0  0  0  0  0  0  0  0  0
    8.3307    2.8311    2.6107 H   0  0  0  0  0  0  0  0  0  0  0  0
    9.4889    1.7007    1.9393 H   0  0  0  0  0  0  0  0  0  0  0  0
    9.6729    3.4391    1.6349 H   0  0  0  0  0  0  0  0  0  0  0  0
   10.6278    3.3156    5.6027 H   0  0  0  0  0  0  0  0  0  0  0  0
    7.8406    3.7805    4.3767 H   0  0  0  0  0  0  0  0  0  0  0  0
    8.6358    4.7515    5.6284 H   0  0  0  0  0  0  0  0  0  0  0  0
    8.6971    2.5362    6.9447 H   0  0  0  0  0  0  0  0  0  0  0  0
    5.6521    2.8771    9.9523 H   0  0  0  0  0  0  0  0  0  0  0  0
    4.0930    5.9243    4.4881 H   0  0  0  0  0  0  0  0  0  0  0  0
    2.7715    5.7339    8.1059 H   0  0  0  0  0  0  0  0  0  0  0  0
    1.9645    5.1741    6.6428 H   0  0  0  0  0  0  0  0  0  0  0  0
    3.4694    7.8763    6.6425 H   0  0  0  0  0  0  0  0  0  0  0  0
    0.6844    7.5277    7.4238 H   0  0  0  0  0  0  0  0  0  0  0  0
    1.4577    8.9128    7.2914 H   0  0  0  0  0  0  0  0  0  0  0  0
   12.3615    2.6688    4.2084 H   0  0  0  0  0  0  0  0  0  0  0  0
   12.1233    2.9836    2.4872 H   0  0  0  0  0  0  0  0  0  0  0  0
   11.1865    0.6154    3.7025 H   0  0  0  0  0  0  0  0  0  0  0  0
  1  2  1  0  0  0  0
  1 23  1  0  0  0  0
  1 24  1  0  0  0  0
  1 25  1  0  0  0  0
  2  3  2  0  0  0  0
  2 21  1  0  0  0  0
  3  4  1  0  0  0  0
  3 26  1  0  0  0  0
  4  5  1  0  0  0  0
  4 27  1  0  0  0  0
  4 28  1  0  0  0  0
  5  6  1  0  0  0  0
  5 29  1  0  0  0  0
  6  7  1  0  0  0  0
  6 11  2  0  0  0  0
  7  8  2  0  0  0  0
  8  9  1  0  0  0  0
  8 30  1  0  0  0  0
  9 10  2  0  0  0  0
 10 11  1  0  0  0  0
 10 14  1  0  0  0  0
 11 12  1  0  0  0  0
 12 13  2  0  0  0  0
 13 14  1  0  0  0  0
 13 31  1  0  0  0  0
 14 15  1  0  0  0  0
 15 32  1  0  0  0  0
 15 33  1  0  0  0  0
 16 18  1  0  0  0  0
 16 17  1  0  0  0  0
 16 15  1  0  0  0  0
 16 34  1  6  0  0  0
 17 35  1  0  0  0  0
 17 36  1  0  0  0  0
 18 19  2  0  0  0  0
 18 20  1  0  0  0  0
 21 22  1  0  0  0  0
 21 37  1  0  0  0  0
 21 38  1  0  0  0  0
 22 39  1  0  0  0  0
M  CHG  1  20  -1
M  END
$$$$
