CHEBI:15395
 OpenBabel04242411483D

 39 40  0  0  1  0  0  0  0  0999 V2000
    2.3830    0.9195   -1.1088 C   0  0  0  0  0  0  0  0  0  0  0  0
    2.2276    1.0552    0.4192 C   0  0  0  0  0  0  0  0  0  0  0  0
    3.5458    1.6715    0.9295 C   0  0  0  0  0  0  0  0  0  0  0  0
    0.9598    1.8316    0.8619 C   0  0  2  0  0  0  0  0  0  0  0  0
    0.9691    1.6962    2.4015 C   0  0  0  0  0  0  0  0  0  0  0  0
    1.5342    0.2827    2.6183 C   0  0  0  0  0  0  0  0  0  0  0  0
    1.7485   -0.2270    1.1648 C   0  0  2  0  0  0  0  0  0  0  0  0
    2.6576   -1.4401    1.1020 C   0  0  0  0  0  0  0  0  0  0  0  0
    0.3429   -0.4804    0.5343 C   0  0  1  0  0  0  0  0  0  0  0  0
   -0.4840   -1.2523    1.3809 O   0  0  0  0  0  0  0  0  0  0  0  0
   -1.8201   -1.8848    0.7718 P   0  0  0  0  0  0  0  0  0  0  0  0
   -2.5611   -1.0569   -0.2251 O   0  0  0  0  0  0  0  0  0  0  0  0
   -1.2824   -3.2239    0.0679 O   0  0  0  0  0  0  0  0  0  0  0  0
   -2.6749   -2.4403    1.9865 O   0  0  0  0  0  0  0  0  0  0  0  0
   -3.3094   -1.4921    3.0784 P   0  0  0  0  0  0  0  0  0  0  0  0
   -2.4006   -0.6047    3.8557 O   0  0  0  0  0  0  0  0  0  0  0  0
   -4.5671   -0.7748    2.4168 O   0  0  0  0  0  0  0  0  0  0  0  0
   -4.0705   -2.4892    4.0739 O   0  0  0  0  0  0  0  0  0  0  0  0
   -0.2051    0.9502    0.3567 C   0  0  0  0  0  0  0  0  0  0  0  0
    2.5276    1.9059   -1.5648 H   0  0  0  0  0  0  0  0  0  0  0  0
    1.5308    0.4629   -1.6157 H   0  0  0  0  0  0  0  0  0  0  0  0
    3.2587    0.3081   -1.3550 H   0  0  0  0  0  0  0  0  0  0  0  0
    3.7040    2.6572    0.4764 H   0  0  0  0  0  0  0  0  0  0  0  0
    4.3991    1.0400    0.6577 H   0  0  0  0  0  0  0  0  0  0  0  0
    3.5935    1.8138    2.0110 H   0  0  0  0  0  0  0  0  0  0  0  0
    0.8948    2.8673    0.5205 H   0  0  0  0  0  0  0  0  0  0  0  0
   -0.0298    1.8041    2.8376 H   0  0  0  0  0  0  0  0  0  0  0  0
    1.6130    2.4493    2.8673 H   0  0  0  0  0  0  0  0  0  0  0  0
    0.8492   -0.3416    3.2008 H   0  0  0  0  0  0  0  0  0  0  0  0
    2.4736    0.3244    3.1807 H   0  0  0  0  0  0  0  0  0  0  0  0
    3.6410   -1.2238    1.5320 H   0  0  0  0  0  0  0  0  0  0  0  0
    2.8106   -1.7696    0.0692 H   0  0  0  0  0  0  0  0  0  0  0  0
    2.2289   -2.2798    1.6594 H   0  0  0  0  0  0  0  0  0  0  0  0
    0.4291   -0.9909   -0.4318 H   0  0  0  0  0  0  0  0  0  0  0  0
   -1.4386   -3.1777   -0.8933 H   0  0  0  0  0  0  0  0  0  0  0  0
   -5.2777   -1.4069    2.2073 H   0  0  0  0  0  0  0  0  0  0  0  0
   -3.8145   -2.2769    4.9929 H   0  0  0  0  0  0  0  0  0  0  0  0
   -1.1326    1.1282    0.9111 H   0  0  0  0  0  0  0  0  0  0  0  0
   -0.4073    1.1525   -0.7007 H   0  0  0  0  0  0  0  0  0  0  0  0
  1  2  1  0  0  0  0
  1 20  1  0  0  0  0
  1 21  1  0  0  0  0
  1 22  1  0  0  0  0
  2  3  1  0  0  0  0
  2  4  1  0  0  0  0
  2  7  1  0  0  0  0
  3 23  1  0  0  0  0
  3 24  1  0  0  0  0
  3 25  1  0  0  0  0
  4  5  1  0  0  0  0
  4 19  1  0  0  0  0
  4 26  1  6  0  0  0
  5  6  1  0  0  0  0
  5 27  1  0  0  0  0
  5 28  1  0  0  0  0
  6  7  1  0  0  0  0
  6 29  1  0  0  0  0
  6 30  1  0  0  0  0
  7  8  1  6  0  0  0
  7  9  1  0  0  0  0
  8 31  1  0  0  0  0
  8 32  1  0  0  0  0
  8 33  1  0  0  0  0
  9 10  1  0  0  0  0
  9 19  1  0  0  0  0
  9 34  1  6  0  0  0
 10 11  1  0  0  0  0
 11 12  2  0  0  0  0
 11 13  1  0  0  0  0
 11 14  1  0  0  0  0
 13 35  1  0  0  0  0
 14 15  1  0  0  0  0
 15 16  2  0  0  0  0
 15 17  1  0  0  0  0
 15 18  1  0  0  0  0
 17 36  1  0  0  0  0
 18 37  1  0  0  0  0
 19 38  1  0  0  0  0
 19 39  1  0  0  0  0
M  END
$$$$
