CHEBI:15420
 OpenBabel04242411513D

 27 27  0  0  0  0  0  0  0  0999 V2000
    3.6426    2.2112   -1.3041 C   0  0  0  0  0  0  0  0  0  0  0  0
    2.9190    1.5484   -0.3855 C   0  0  0  0  0  0  0  0  0  0  0  0
    1.7550    2.2334    0.2876 C   0  0  0  0  0  0  0  0  0  0  0  0
    3.1528    0.0925    0.0340 C   0  0  0  0  0  0  0  0  0  0  0  0
    3.9128   -0.7973   -0.9794 C   0  0  0  0  0  0  0  0  0  0  0  0
    5.4123   -0.7413   -0.8655 C   0  0  0  0  0  0  0  0  0  0  0  0
    6.0617   -0.1817    0.1720 C   0  0  0  0  0  0  0  0  0  0  0  0
    7.5615   -0.1036    0.2282 C   0  0  0  0  0  0  0  0  0  0  0  0
    7.9601    1.2582    0.2652 O   0  0  0  0  0  0  0  0  0  0  0  0
    5.3192    0.3992    1.3531 C   0  0  0  0  0  0  0  0  0  0  0  0
    3.8423   -0.0065    1.4060 C   0  0  0  0  0  0  0  0  0  0  0  0
    3.4190    3.2417   -1.5659 H   0  0  0  0  0  0  0  0  0  0  0  0
    4.4847    1.7623   -1.8187 H   0  0  0  0  0  0  0  0  0  0  0  0
    1.6113    3.2565   -0.0763 H   0  0  0  0  0  0  0  0  0  0  0  0
    1.9083    2.2880    1.3693 H   0  0  0  0  0  0  0  0  0  0  0  0
    0.8283    1.6833    0.0930 H   0  0  0  0  0  0  0  0  0  0  0  0
    2.1529   -0.3555    0.1282 H   0  0  0  0  0  0  0  0  0  0  0  0
    3.6135   -0.5490   -2.0046 H   0  0  0  0  0  0  0  0  0  0  0  0
    3.6164   -1.8428   -0.8212 H   0  0  0  0  0  0  0  0  0  0  0  0
    5.9703   -1.1746   -1.6927 H   0  0  0  0  0  0  0  0  0  0  0  0
    8.0314   -0.5703   -0.6437 H   0  0  0  0  0  0  0  0  0  0  0  0
    7.9430   -0.6054    1.1228 H   0  0  0  0  0  0  0  0  0  0  0  0
    7.4276    1.7222   -0.4034 H   0  0  0  0  0  0  0  0  0  0  0  0
    5.4001    1.4924    1.3218 H   0  0  0  0  0  0  0  0  0  0  0  0
    5.7965    0.0707    2.2845 H   0  0  0  0  0  0  0  0  0  0  0  0
    3.3247    0.5985    2.1593 H   0  0  0  0  0  0  0  0  0  0  0  0
    3.7754   -1.0459    1.7564 H   0  0  0  0  0  0  0  0  0  0  0  0
  1  2  2  0  0  0  0
  1 12  1  0  0  0  0
  1 13  1  0  0  0  0
  2  3  1  0  0  0  0
  2  4  1  0  0  0  0
  3 14  1  0  0  0  0
  3 15  1  0  0  0  0
  3 16  1  0  0  0  0
  4  5  1  0  0  0  0
  4 11  1  0  0  0  0
  4 17  1  0  0  0  0
  5  6  1  0  0  0  0
  5 18  1  0  0  0  0
  5 19  1  0  0  0  0
  6  7  2  0  0  0  0
  6 20  1  0  0  0  0
  7  8  1  0  0  0  0
  7 10  1  0  0  0  0
  8  9  1  0  0  0  0
  8 21  1  0  0  0  0
  8 22  1  0  0  0  0
  9 23  1  0  0  0  0
 10 11  1  0  0  0  0
 10 24  1  0  0  0  0
 10 25  1  0  0  0  0
 11 26  1  0  0  0  0
 11 27  1  0  0  0  0
M  END
$$$$
