CHEBI:7907
 OpenBabel04242411113D

101106  0  0  1  0  0  0  0  0999 V2000
    1.4405    1.8783   -0.9627 C   0  0  0  0  0  0  0  0  0  0  0  0
    2.8038    2.0983   -0.3843 C   0  0  0  0  0  0  0  0  0  0  0  0
    3.2057    3.1545    0.0790 O   0  0  0  0  0  0  0  0  0  0  0  0
    3.5399    0.9502   -0.4307 O   0  0  0  0  0  0  0  0  0  0  0  0
    4.9007    1.0462    0.0717 C   0  0  1  0  0  0  0  0  0  0  0  0
    4.8809    0.8511    1.5904 C   0  0  0  0  0  0  0  0  0  0  0  0
    4.5051   -0.5800    1.9829 C   0  0  2  0  0  0  0  0  0  0  0  0
    4.2758   -0.6948    3.4981 C   0  0  0  0  0  0  0  0  0  0  0  0
    3.7964   -2.0939    3.8905 C   0  0  0  0  0  0  0  0  0  0  0  0
    4.7821   -3.1538    3.3901 C   0  0  2  0  0  0  0  0  0  0  0  0
    4.9329   -3.0565    1.8321 C   0  0  2  0  0  0  0  0  0  0  0  0
    5.6546   -4.2605    1.1632 C   0  0  0  0  0  0  0  0  0  0  0  0
    5.4037   -5.6341    1.8293 C   0  0  0  0  0  0  0  0  0  0  0  0
    5.5410   -5.5522    3.3620 C   0  0  1  0  0  0  0  0  0  0  0  0
    7.0030   -5.1533    3.6793 C   0  0  0  0  0  0  0  0  0  0  0  0
    4.4481   -4.5728    3.8323 C   0  0  1  0  0  0  0  0  0  0  0  0
    4.3472   -4.8126    5.3394 C   0  0  0  0  0  0  0  0  0  0  0  0
    4.5934   -6.3333    5.5433 C   0  0  2  0  0  0  0  0  0  0  0  0
    5.3737   -6.6333    6.8941 N   0  3  0  0  0  0  0  0  0  0  0  0
    5.4239   -8.1576    7.1052 C   0  0  0  0  0  0  0  0  0  0  0  0
    6.7934   -6.0662    6.9131 C   0  0  0  0  0  0  0  0  0  0  0  0
    7.4666   -6.1752    8.2757 C   0  0  0  0  0  0  0  0  0  0  0  0
    6.6408   -5.4922    9.3535 C   0  0  0  0  0  0  0  0  0  0  0  0
    5.2420   -6.0826    9.4117 C   0  0  0  0  0  0  0  0  0  0  0  0
    4.5355   -6.0243    8.0602 C   0  0  0  0  0  0  0  0  0  0  0  0
    5.1311   -6.8314    4.1443 C   0  0  2  0  0  0  0  0  0  0  0  0
    6.1714   -7.8060    4.1052 O   0  0  0  0  0  0  0  0  0  0  0  0
    5.7332   -9.0957    4.0090 C   0  0  0  0  0  0  0  0  0  0  0  0
    6.8082   -9.9811    3.4579 C   0  0  0  0  0  0  0  0  0  0  0  0
    4.6112   -9.4532    4.3231 O   0  0  0  0  0  0  0  0  0  0  0  0
    5.5196   -1.6304    1.4369 C   0  0  2  0  0  0  0  0  0  0  0  0
    6.9336   -1.4721    2.0478 C   0  0  0  0  0  0  0  0  0  0  0  0
    5.6201   -1.4516   -0.1137 C   0  0  0  0  0  0  0  0  0  0  0  0
    5.7305   -0.0115   -0.7167 C   0  0  2  0  0  0  0  0  0  0  0  0
    7.1943    0.5072   -1.1730 N   0  3  0  0  0  0  0  0  0  0  0  0
    6.9589    1.7211   -2.1244 C   0  0  0  0  0  0  0  0  0  0  0  0
    8.0719    0.9502   -0.0069 C   0  0  0  0  0  0  0  0  0  0  0  0
    9.4710    1.3790   -0.4358 C   0  0  0  0  0  0  0  0  0  0  0  0
   10.1739    0.2784   -1.2175 C   0  0  0  0  0  0  0  0  0  0  0  0
    9.3371   -0.1824   -2.4025 C   0  0  0  0  0  0  0  0  0  0  0  0
    7.9255   -0.5916   -1.9817 C   0  0  0  0  0  0  0  0  0  0  0  0
    1.0575    2.8279   -1.3471 H   0  0  0  0  0  0  0  0  0  0  0  0
    0.7690    1.4894   -0.1946 H   0  0  0  0  0  0  0  0  0  0  0  0
    1.4966    1.1802   -1.8030 H   0  0  0  0  0  0  0  0  0  0  0  0
    5.2685    2.0525   -0.1315 H   0  0  0  0  0  0  0  0  0  0  0  0
    4.1424    1.5333    2.0297 H   0  0  0  0  0  0  0  0  0  0  0  0
    5.8438    1.1390    2.0205 H   0  0  0  0  0  0  0  0  0  0  0  0
    3.5308   -0.7893    1.5152 H   0  0  0  0  0  0  0  0  0  0  0  0
    3.5238    0.0362    3.8187 H   0  0  0  0  0  0  0  0  0  0  0  0
    5.1975   -0.4540    4.0417 H   0  0  0  0  0  0  0  0  0  0  0  0
    2.7982   -2.2779    3.4746 H   0  0  0  0  0  0  0  0  0  0  0  0
    3.7002   -2.1384    4.9811 H   0  0  0  0  0  0  0  0  0  0  0  0
    5.7244   -2.9184    3.8855 H   0  0  0  0  0  0  0  0  0  0  0  0
    3.9081   -3.1034    1.4293 H   0  0  0  0  0  0  0  0  0  0  0  0
    6.7323   -4.0796    1.1096 H   0  0  0  0  0  0  0  0  0  0  0  0
    5.3283   -4.3306    0.1171 H   0  0  0  0  0  0  0  0  0  0  0  0
    6.0986   -6.3751    1.4162 H   0  0  0  0  0  0  0  0  0  0  0  0
    4.3958   -5.9758    1.5578 H   0  0  0  0  0  0  0  0  0  0  0  0
    7.3658   -4.3167    3.0798 H   0  0  0  0  0  0  0  0  0  0  0  0
    7.6931   -5.9811    3.4846 H   0  0  0  0  0  0  0  0  0  0  0  0
    7.1343   -4.8294    4.7055 H   0  0  0  0  0  0  0  0  0  0  0  0
    3.4781   -4.8555    3.3945 H   0  0  0  0  0  0  0  0  0  0  0  0
    3.3515   -4.5337    5.7038 H   0  0  0  0  0  0  0  0  0  0  0  0
    5.0668   -4.1791    5.8619 H   0  0  0  0  0  0  0  0  0  0  0  0
    3.6172   -6.8143    5.6954 H   0  0  0  0  0  0  0  0  0  0  0  0
    5.6969   -8.3766    8.1387 H   0  0  0  0  0  0  0  0  0  0  0  0
    6.1965   -8.5758    6.4618 H   0  0  0  0  0  0  0  0  0  0  0  0
    4.4374   -8.5747    6.8909 H   0  0  0  0  0  0  0  0  0  0  0  0
    6.7272   -5.0053    6.6706 H   0  0  0  0  0  0  0  0  0  0  0  0
    7.3777   -6.5887    6.1509 H   0  0  0  0  0  0  0  0  0  0  0  0
    8.4507   -5.6937    8.2230 H   0  0  0  0  0  0  0  0  0  0  0  0
    7.6479   -7.2220    8.5404 H   0  0  0  0  0  0  0  0  0  0  0  0
    6.5775   -4.4163    9.1447 H   0  0  0  0  0  0  0  0  0  0  0  0
    7.1337   -5.5970   10.3262 H   0  0  0  0  0  0  0  0  0  0  0  0
    4.6482   -5.5227   10.1444 H   0  0  0  0  0  0  0  0  0  0  0  0
    5.2874   -7.1100    9.7867 H   0  0  0  0  0  0  0  0  0  0  0  0
    4.3449   -4.9751    7.8190 H   0  0  0  0  0  0  0  0  0  0  0  0
    3.5790   -6.5579    8.0885 H   0  0  0  0  0  0  0  0  0  0  0  0
    4.2534   -7.2296    3.6104 H   0  0  0  0  0  0  0  0  0  0  0  0
    7.7600   -9.7738    3.9533 H   0  0  0  0  0  0  0  0  0  0  0  0
    6.8960   -9.8158    2.3811 H   0  0  0  0  0  0  0  0  0  0  0  0
    6.5468  -11.0264    3.6425 H   0  0  0  0  0  0  0  0  0  0  0  0
    7.1926   -0.4296    2.2231 H   0  0  0  0  0  0  0  0  0  0  0  0
    7.6943   -1.9273    1.4041 H   0  0  0  0  0  0  0  0  0  0  0  0
    7.0683   -1.9325    3.0242 H   0  0  0  0  0  0  0  0  0  0  0  0
    4.6731   -1.8466   -0.5150 H   0  0  0  0  0  0  0  0  0  0  0  0
    6.3705   -2.1302   -0.5207 H   0  0  0  0  0  0  0  0  0  0  0  0
    5.2462   -0.1175   -1.6987 H   0  0  0  0  0  0  0  0  0  0  0  0
    7.8995    2.0200   -2.5869 H   0  0  0  0  0  0  0  0  0  0  0  0
    6.5816    2.5637   -1.5436 H   0  0  0  0  0  0  0  0  0  0  0  0
    6.2469    1.4202   -2.8970 H   0  0  0  0  0  0  0  0  0  0  0  0
    8.1900    0.0846    0.6308 H   0  0  0  0  0  0  0  0  0  0  0  0
    7.5611    1.7530    0.5305 H   0  0  0  0  0  0  0  0  0  0  0  0
   10.0599    1.6084    0.4609 H   0  0  0  0  0  0  0  0  0  0  0  0
    9.4374    2.3024   -1.0227 H   0  0  0  0  0  0  0  0  0  0  0  0
   10.3622   -0.5753   -0.5536 H   0  0  0  0  0  0  0  0  0  0  0  0
   11.1523    0.6310   -1.5619 H   0  0  0  0  0  0  0  0  0  0  0  0
    9.8292   -1.0425   -2.8725 H   0  0  0  0  0  0  0  0  0  0  0  0
    9.3118    0.5987   -3.1689 H   0  0  0  0  0  0  0  0  0  0  0  0
    8.0170   -1.4668   -1.3359 H   0  0  0  0  0  0  0  0  0  0  0  0
    7.3017   -0.8363   -2.8476 H   0  0  0  0  0  0  0  0  0  0  0  0
  1  2  1  0  0  0  0
  1 42  1  0  0  0  0
  1 43  1  0  0  0  0
  1 44  1  0  0  0  0
  2  3  2  0  0  0  0
  2  4  1  0  0  0  0
  4  5  1  0  0  0  0
  5  6  1  0  0  0  0
  5 34  1  0  0  0  0
  5 45  1  6  0  0  0
  6  7  1  0  0  0  0
  6 46  1  0  0  0  0
  6 47  1  0  0  0  0
  7  8  1  0  0  0  0
  7 31  1  0  0  0  0
  7 48  1  6  0  0  0
  8  9  1  0  0  0  0
  8 49  1  0  0  0  0
  8 50  1  0  0  0  0
  9 10  1  0  0  0  0
  9 51  1  0  0  0  0
  9 52  1  0  0  0  0
 10 11  1  0  0  0  0
 10 16  1  0  0  0  0
 10 53  1  1  0  0  0
 11 12  1  0  0  0  0
 11 31  1  0  0  0  0
 11 54  1  6  0  0  0
 12 13  1  0  0  0  0
 12 55  1  0  0  0  0
 12 56  1  0  0  0  0
 13 14  1  0  0  0  0
 13 57  1  0  0  0  0
 13 58  1  0  0  0  0
 14 15  1  1  0  0  0
 14 16  1  0  0  0  0
 14 26  1  0  0  0  0
 15 59  1  0  0  0  0
 15 60  1  0  0  0  0
 15 61  1  0  0  0  0
 16 17  1  0  0  0  0
 16 62  1  6  0  0  0
 17 18  1  0  0  0  0
 17 63  1  0  0  0  0
 17 64  1  0  0  0  0
 18 26  1  0  0  0  0
 18 19  1  0  0  0  0
 18 65  1  1  0  0  0
 19 20  1  0  0  0  0
 19 21  1  0  0  0  0
 19 25  1  0  0  0  0
 20 66  1  0  0  0  0
 20 67  1  0  0  0  0
 20 68  1  0  0  0  0
 21 22  1  0  0  0  0
 21 69  1  0  0  0  0
 21 70  1  0  0  0  0
 22 23  1  0  0  0  0
 22 71  1  0  0  0  0
 22 72  1  0  0  0  0
 23 24  1  0  0  0  0
 23 73  1  0  0  0  0
 23 74  1  0  0  0  0
 24 25  1  0  0  0  0
 24 75  1  0  0  0  0
 24 76  1  0  0  0  0
 25 77  1  0  0  0  0
 25 78  1  0  0  0  0
 26 27  1  0  0  0  0
 26 79  1  6  0  0  0
 27 28  1  0  0  0  0
 28 29  1  0  0  0  0
 28 30  2  0  0  0  0
 29 80  1  0  0  0  0
 29 81  1  0  0  0  0
 29 82  1  0  0  0  0
 31 32  1  1  0  0  0
 31 33  1  0  0  0  0
 32 83  1  0  0  0  0
 32 84  1  0  0  0  0
 32 85  1  0  0  0  0
 33 34  1  0  0  0  0
 33 86  1  0  0  0  0
 33 87  1  0  0  0  0
 34 35  1  0  0  0  0
 34 88  1  6  0  0  0
 35 36  1  0  0  0  0
 35 37  1  0  0  0  0
 35 41  1  0  0  0  0
 36 89  1  0  0  0  0
 36 90  1  0  0  0  0
 36 91  1  0  0  0  0
 37 38  1  0  0  0  0
 37 92  1  0  0  0  0
 37 93  1  0  0  0  0
 38 39  1  0  0  0  0
 38 94  1  0  0  0  0
 38 95  1  0  0  0  0
 39 40  1  0  0  0  0
 39 96  1  0  0  0  0
 39 97  1  0  0  0  0
 40 41  1  0  0  0  0
 40 98  1  0  0  0  0
 40 99  1  0  0  0  0
 41100  1  0  0  0  0
 41101  1  0  0  0  0
M  CHG  2  19   1  35   1
M  END
$$$$
