CHEBI:16537
 OpenBabel04242414433D

 22 21  0  0  1  0  0  0  0  0999 V2000
    3.5186    3.3284   -3.1548 O   0  0  0  0  0  0  0  0  0  0  0  0
    4.2637    2.4698   -2.5772 C   0  0  0  0  0  0  0  0  0  0  0  0
    4.2707    2.1154   -1.3669 O   0  5  0  0  0  0  0  0  0  0  0  0
    5.2984    1.8017   -3.5380 C   0  0  1  0  0  0  0  0  0  0  0  0
    4.9004    2.1545   -4.9077 O   0  0  0  0  0  0  0  0  0  0  0  0
    5.4092    0.2699   -3.4115 C   0  0  2  0  0  0  0  0  0  0  0  0
    6.2367   -0.2591   -4.4752 O   0  0  0  0  0  0  0  0  0  0  0  0
    5.9033   -0.3118   -2.0506 C   0  0  2  0  0  0  0  0  0  0  0  0
    4.7882   -0.3634   -1.1280 O   0  0  0  0  0  0  0  0  0  0  0  0
    7.1139    0.3632   -1.3773 C   0  0  1  0  0  0  0  0  0  0  0  0
    7.3961   -0.3039   -0.0979 O   0  0  0  0  0  0  0  0  0  0  0  0
    8.4443    0.3488   -2.1971 C   0  0  0  0  0  0  0  0  0  0  0  0
    8.3825    0.6095   -3.4288 O   0  0  0  0  0  0  0  0  0  0  0  0
    9.4683    0.0680   -1.4903 O   0  5  0  0  0  0  0  0  0  0  0  0
    6.2693    2.2830   -3.3882 H   0  0  0  0  0  0  0  0  0  0  0  0
    4.2030    2.8338   -4.7406 H   0  0  0  0  0  0  0  0  0  0  0  0
    4.4114   -0.1436   -3.6071 H   0  0  0  0  0  0  0  0  0  0  0  0
    7.1279    0.1547   -4.3284 H   0  0  0  0  0  0  0  0  0  0  0  0
    6.1715   -1.3631   -2.2165 H   0  0  0  0  0  0  0  0  0  0  0  0
    4.5624    0.5876   -0.9503 H   0  0  0  0  0  0  0  0  0  0  0  0
    6.8866    1.4004   -1.1128 H   0  0  0  0  0  0  0  0  0  0  0  0
    8.3821   -0.3626   -0.1215 H   0  0  0  0  0  0  0  0  0  0  0  0
  1  2  2  0  0  0  0
  2  3  1  0  0  0  0
  2  4  1  0  0  0  0
  4  5  1  0  0  0  0
  4 15  1  6  0  0  0
  5 16  1  0  0  0  0
  6  7  1  0  0  0  0
  6  4  1  0  0  0  0
  6 17  1  1  0  0  0
  7 18  1  0  0  0  0
  8 10  1  0  0  0  0
  8  9  1  0  0  0  0
  8  6  1  0  0  0  0
  8 19  1  6  0  0  0
  9 20  1  0  0  0  0
 10 11  1  0  0  0  0
 10 12  1  0  0  0  0
 10 21  1  1  0  0  0
 11 22  1  0  0  0  0
 12 13  2  0  0  0  0
 12 14  1  0  0  0  0
M  CHG  2   3  -1  14  -1
M  END
$$$$
