CHEBI:17239
 OpenBabel04242416043D

 40 41  0  0  1  0  0  0  0  0999 V2000
    7.6540    3.6316    7.7997 N   0  0  0  0  0  0  0  0  0  0  0  0
    7.0261    3.2100    6.6618 C   0  0  0  0  0  0  0  0  0  0  0  0
    7.5870    2.0884    5.8864 C   0  0  0  0  0  0  0  0  0  0  0  0
    6.9107    1.7393    4.7929 C   0  0  0  0  0  0  0  0  0  0  0  0
    5.7615    2.4033    4.4201 N   0  0  0  0  0  0  0  0  0  0  0  0
    4.9438    1.9613    3.2882 C   0  0  2  0  0  0  0  0  0  0  0  0
    5.5046    0.7781    2.6795 O   0  0  0  0  0  0  0  0  0  0  0  0
    5.0930    0.7564    1.2917 C   0  0  2  0  0  0  0  0  0  0  0  0
    6.3268    0.5401    0.4101 C   0  0  0  0  0  0  0  0  0  0  0  0
    6.0334    0.5959   -0.9771 O   0  0  0  0  0  0  0  0  0  0  0  0
    5.2723   -0.6483   -1.6507 P   0  0  0  0  0  0  0  0  0  0  0  0
    5.8659   -1.9977   -1.4113 O   0  0  0  0  0  0  0  0  0  0  0  0
    3.7738   -0.4929   -1.1210 O   0  0  0  0  0  0  0  0  0  0  0  0
    5.1446   -0.2494   -3.1866 O   0  0  0  0  0  0  0  0  0  0  0  0
    4.4274   -1.3031   -4.1329 P   0  0  0  0  0  0  0  0  0  0  0  0
    3.1833   -1.9101   -3.5775 O   0  0  0  0  0  0  0  0  0  0  0  0
    4.2189   -0.5342   -5.5143 O   0  0  0  0  0  0  0  0  0  0  0  0
    5.5640   -2.3582   -4.5020 O   0  0  0  0  0  0  0  0  0  0  0  0
    4.3731    2.0733    1.0057 C   0  0  1  0  0  0  0  0  0  0  0  0
    2.9519    1.8864    1.1259 O   0  0  0  0  0  0  0  0  0  0  0  0
    4.8325    2.9793    2.1362 C   0  0  1  0  0  0  0  0  0  0  0  0
    3.8765    4.0289    2.2949 O   0  0  0  0  0  0  0  0  0  0  0  0
    5.2591    3.4533    5.1962 C   0  0  0  0  0  0  0  0  0  0  0  0
    4.2275    4.0354    4.8656 O   0  0  0  0  0  0  0  0  0  0  0  0
    5.9474    3.8388    6.3189 N   0  0  0  0  0  0  0  0  0  0  0  0
    8.6618    3.5502    7.8378 H   0  0  0  0  0  0  0  0  0  0  0  0
    7.3074    4.5302    8.1230 H   0  0  0  0  0  0  0  0  0  0  0  0
    8.4777    1.5808    6.2255 H   0  0  0  0  0  0  0  0  0  0  0  0
    7.2447    0.9069    4.1819 H   0  0  0  0  0  0  0  0  0  0  0  0
    3.9499    1.7084    3.6812 H   0  0  0  0  0  0  0  0  0  0  0  0
    4.4098   -0.0913    1.1871 H   0  0  0  0  0  0  0  0  0  0  0  0
    6.8082   -0.4146    0.6517 H   0  0  0  0  0  0  0  0  0  0  0  0
    7.0763    1.3117    0.6220 H   0  0  0  0  0  0  0  0  0  0  0  0
    3.1697   -1.1934   -1.4466 H   0  0  0  0  0  0  0  0  0  0  0  0
    3.6543   -1.0390   -6.1263 H   0  0  0  0  0  0  0  0  0  0  0  0
    5.7602   -2.9716   -3.7647 H   0  0  0  0  0  0  0  0  0  0  0  0
    4.5566    2.4934    0.0130 H   0  0  0  0  0  0  0  0  0  0  0  0
    2.5952    2.7864    1.2826 H   0  0  0  0  0  0  0  0  0  0  0  0
    5.8123    3.4152    1.9090 H   0  0  0  0  0  0  0  0  0  0  0  0
    3.8798    4.2937    3.2430 H   0  0  0  0  0  0  0  0  0  0  0  0
  1  2  1  0  0  0  0
  1 26  1  0  0  0  0
  1 27  1  0  0  0  0
  2  3  1  0  0  0  0
  2 25  2  0  0  0  0
  3  4  2  0  0  0  0
  3 28  1  0  0  0  0
  4  5  1  0  0  0  0
  4 29  1  0  0  0  0
  5  6  1  0  0  0  0
  5 23  1  0  0  0  0
  6  7  1  0  0  0  0
  6 21  1  0  0  0  0
  6 30  1  1  0  0  0
  7  8  1  0  0  0  0
  8  9  1  0  0  0  0
  8 19  1  0  0  0  0
  8 31  1  6  0  0  0
  9 10  1  0  0  0  0
  9 32  1  0  0  0  0
  9 33  1  0  0  0  0
 10 11  1  0  0  0  0
 11 12  2  0  0  0  0
 11 13  1  0  0  0  0
 11 14  1  0  0  0  0
 13 34  1  0  0  0  0
 14 15  1  0  0  0  0
 15 16  2  0  0  0  0
 15 17  1  0  0  0  0
 15 18  1  0  0  0  0
 17 35  1  0  0  0  0
 18 36  1  0  0  0  0
 19 20  1  0  0  0  0
 19 21  1  0  0  0  0
 19 37  1  6  0  0  0
 20 38  1  0  0  0  0
 21 22  1  0  0  0  0
 21 39  1  6  0  0  0
 22 40  1  0  0  0  0
 23 24  2  0  0  0  0
 23 25  1  0  0  0  0
M  END
$$$$
