CHEBI:3353
 OpenBabel04242410493D

 78 81  0  0  1  0  0  0  0  0999 V2000
    0.9793    4.5136   -2.1632 C   0  0  0  0  0  0  0  0  0  0  0  0
    1.8189    3.4416   -1.7543 O   0  0  0  0  0  0  0  0  0  0  0  0
    2.5084    3.7578   -0.5471 C   0  0  0  0  0  0  0  0  0  0  0  0
    3.3429    2.5599   -0.1050 C   0  0  0  0  0  0  0  0  0  0  0  0
    4.1656    2.8643    1.0215 O   0  0  0  0  0  0  0  0  0  0  0  0
    3.4451    2.9581    2.2480 C   0  0  0  0  0  0  0  0  0  0  0  0
    4.4334    2.9975    3.4216 C   0  0  2  0  0  0  0  0  0  0  0  0
    5.4152    4.1831    3.2815 C   0  0  0  0  0  0  0  0  0  0  0  0
    5.9936    4.7684    4.6080 C   0  0  0  0  0  0  0  0  0  0  0  0
    4.8953    5.0845    5.6509 C   0  0  0  0  0  0  0  0  0  0  0  0
    5.0117    4.8173    6.8434 O   0  0  0  0  0  0  0  0  0  0  0  0
    3.7756    5.7190    5.1526 N   0  0  0  0  0  0  0  0  0  0  0  0
    2.6490    6.0990    6.0042 C   0  0  1  0  0  0  0  0  0  0  0  0
    2.6782    7.5980    6.3076 C   0  0  0  0  0  0  0  0  0  0  0  0
    2.4295    8.4430    5.0595 C   0  0  0  0  0  0  0  0  0  0  0  0
    1.1604    8.0383    4.3005 C   0  0  1  0  0  0  0  0  0  0  0  0
    1.1657    8.7324    2.9561 C   0  0  0  0  0  0  0  0  0  0  0  0
    1.6378    8.2999    1.9173 O   0  0  0  0  0  0  0  0  0  0  0  0
    0.6248    9.9627    3.0039 O   0  0  0  0  0  0  0  0  0  0  0  0
    1.0289    6.5225    4.0912 C   0  0  0  0  0  0  0  0  0  0  0  0
    1.3156    5.7169    5.3548 C   0  0  0  0  0  0  0  0  0  0  0  0
    7.0787    3.8339    5.2129 C   0  0  0  0  0  0  0  0  0  0  0  0
    8.3371    4.6782    5.3774 C   0  0  0  0  0  0  0  0  0  0  0  0
    8.2305    5.6879    4.2533 C   0  0  0  0  0  0  0  0  0  0  0  0
    6.7623    6.0835    4.2999 C   0  0  0  0  0  0  0  0  0  0  0  0
    5.1122    1.6386    3.4721 C   0  0  0  0  0  0  0  0  0  0  0  0
    6.2778    1.4006    3.1949 O   0  0  0  0  0  0  0  0  0  0  0  0
    4.1587    0.7127    3.9146 O   0  0  0  0  0  0  0  0  0  0  0  0
    4.4077   -0.6521    4.1722 C   0  0  0  0  0  0  0  0  0  0  0  0
    5.4843   -1.3720    3.6394 C   0  0  0  0  0  0  0  0  0  0  0  0
    5.6660   -2.7130    3.9895 C   0  0  0  0  0  0  0  0  0  0  0  0
    4.7623   -3.2956    4.8629 C   0  0  0  0  0  0  0  0  0  0  0  0
    3.6661   -2.5791    5.3557 C   0  0  0  0  0  0  0  0  0  0  0  0
    3.4678   -1.2571    5.0101 C   0  0  0  0  0  0  0  0  0  0  0  0
    2.8126   -3.4421    6.2284 C   0  0  0  0  0  0  0  0  0  0  0  0
    3.8079   -4.5523    6.5904 C   0  0  0  0  0  0  0  0  0  0  0  0
    4.7551   -4.6969    5.3888 C   0  0  0  0  0  0  0  0  0  0  0  0
    0.1571    4.6372   -1.4519 H   0  0  0  0  0  0  0  0  0  0  0  0
    0.5613    4.2702   -3.1432 H   0  0  0  0  0  0  0  0  0  0  0  0
    1.5490    5.4444   -2.2454 H   0  0  0  0  0  0  0  0  0  0  0  0
    1.7828    4.0203    0.2306 H   0  0  0  0  0  0  0  0  0  0  0  0
    3.1621    4.6240   -0.7035 H   0  0  0  0  0  0  0  0  0  0  0  0
    4.0079    2.2602   -0.9230 H   0  0  0  0  0  0  0  0  0  0  0  0
    2.7098    1.6882    0.1023 H   0  0  0  0  0  0  0  0  0  0  0  0
    2.7549    2.1120    2.3442 H   0  0  0  0  0  0  0  0  0  0  0  0
    2.8516    3.8793    2.2453 H   0  0  0  0  0  0  0  0  0  0  0  0
    3.8588    3.1037    4.3481 H   0  0  0  0  0  0  0  0  0  0  0  0
    6.2458    3.9093    2.6171 H   0  0  0  0  0  0  0  0  0  0  0  0
    4.8911    4.9941    2.7577 H   0  0  0  0  0  0  0  0  0  0  0  0
    3.8168    6.1002    4.2167 H   0  0  0  0  0  0  0  0  0  0  0  0
    2.7300    5.5527    6.9513 H   0  0  0  0  0  0  0  0  0  0  0  0
    3.6419    7.8774    6.7497 H   0  0  0  0  0  0  0  0  0  0  0  0
    1.9072    7.8287    7.0539 H   0  0  0  0  0  0  0  0  0  0  0  0
    3.3017    8.3757    4.3967 H   0  0  0  0  0  0  0  0  0  0  0  0
    2.3596    9.4987    5.3511 H   0  0  0  0  0  0  0  0  0  0  0  0
    0.2787    8.3740    4.8623 H   0  0  0  0  0  0  0  0  0  0  0  0
    0.7294   10.3086    2.0922 H   0  0  0  0  0  0  0  0  0  0  0  0
    1.7022    6.1816    3.2952 H   0  0  0  0  0  0  0  0  0  0  0  0
    0.0148    6.2925    3.7390 H   0  0  0  0  0  0  0  0  0  0  0  0
    1.3050    4.6473    5.1120 H   0  0  0  0  0  0  0  0  0  0  0  0
    0.5044    5.8853    6.0751 H   0  0  0  0  0  0  0  0  0  0  0  0
    7.3265    3.0200    4.5299 H   0  0  0  0  0  0  0  0  0  0  0  0
    6.7947    3.3680    6.1614 H   0  0  0  0  0  0  0  0  0  0  0  0
    9.2468    4.0739    5.3066 H   0  0  0  0  0  0  0  0  0  0  0  0
    8.3346    5.1825    6.3501 H   0  0  0  0  0  0  0  0  0  0  0  0
    8.4686    5.2181    3.2912 H   0  0  0  0  0  0  0  0  0  0  0  0
    8.8997    6.5410    4.3931 H   0  0  0  0  0  0  0  0  0  0  0  0
    6.4508    6.5604    3.3647 H   0  0  0  0  0  0  0  0  0  0  0  0
    6.6160    6.8216    5.0994 H   0  0  0  0  0  0  0  0  0  0  0  0
    6.1929   -0.9126    2.9573 H   0  0  0  0  0  0  0  0  0  0  0  0
    6.5055   -3.2745    3.5918 H   0  0  0  0  0  0  0  0  0  0  0  0
    2.6217   -0.6976    5.3934 H   0  0  0  0  0  0  0  0  0  0  0  0
    1.9665   -3.8364    5.6561 H   0  0  0  0  0  0  0  0  0  0  0  0
    2.4538   -2.9163    7.1174 H   0  0  0  0  0  0  0  0  0  0  0  0
    3.3121   -5.4920    6.8507 H   0  0  0  0  0  0  0  0  0  0  0  0
    4.3888   -4.2372    7.4691 H   0  0  0  0  0  0  0  0  0  0  0  0
    4.3456   -5.3810    4.6392 H   0  0  0  0  0  0  0  0  0  0  0  0
    5.7481   -5.0295    5.7033 H   0  0  0  0  0  0  0  0  0  0  0  0
  1  2  1  0  0  0  0
  1 38  1  0  0  0  0
  1 39  1  0  0  0  0
  1 40  1  0  0  0  0
  2  3  1  0  0  0  0
  3  4  1  0  0  0  0
  3 41  1  0  0  0  0
  3 42  1  0  0  0  0
  4  5  1  0  0  0  0
  4 43  1  0  0  0  0
  4 44  1  0  0  0  0
  5  6  1  0  0  0  0
  6 45  1  0  0  0  0
  6 46  1  0  0  0  0
  7 26  1  0  0  0  0
  7  8  1  0  0  0  0
  7  6  1  0  0  0  0
  7 47  1  1  0  0  0
  8  9  1  0  0  0  0
  8 48  1  0  0  0  0
  8 49  1  0  0  0  0
  9 10  1  0  0  0  0
  9 22  1  0  0  0  0
  9 25  1  0  0  0  0
 10 11  2  0  0  0  0
 10 12  1  0  0  0  0
 12 50  1  0  0  0  0
 13 14  1  0  0  0  0
 13 21  1  0  0  0  0
 13 12  1  0  0  0  0
 13 51  1  1  0  0  0
 14 15  1  0  0  0  0
 14 52  1  0  0  0  0
 14 53  1  0  0  0  0
 15 16  1  0  0  0  0
 15 54  1  0  0  0  0
 15 55  1  0  0  0  0
 16 17  1  0  0  0  0
 16 20  1  0  0  0  0
 16 56  1  1  0  0  0
 17 18  2  0  0  0  0
 17 19  1  0  0  0  0
 19 57  1  0  0  0  0
 20 21  1  0  0  0  0
 20 58  1  0  0  0  0
 20 59  1  0  0  0  0
 21 60  1  0  0  0  0
 21 61  1  0  0  0  0
 22 23  1  0  0  0  0
 22 62  1  0  0  0  0
 22 63  1  0  0  0  0
 23 24  1  0  0  0  0
 23 64  1  0  0  0  0
 23 65  1  0  0  0  0
 24 25  1  0  0  0  0
 24 66  1  0  0  0  0
 24 67  1  0  0  0  0
 25 68  1  0  0  0  0
 25 69  1  0  0  0  0
 26 27  2  0  0  0  0
 26 28  1  0  0  0  0
 28 29  1  0  0  0  0
 29 30  1  0  0  0  0
 29 34  2  0  0  0  0
 30 31  2  0  0  0  0
 30 70  1  0  0  0  0
 31 32  1  0  0  0  0
 31 71  1  0  0  0  0
 32 33  2  0  0  0  0
 32 37  1  0  0  0  0
 33 34  1  0  0  0  0
 33 35  1  0  0  0  0
 34 72  1  0  0  0  0
 35 36  1  0  0  0  0
 35 73  1  0  0  0  0
 35 74  1  0  0  0  0
 36 37  1  0  0  0  0
 36 75  1  0  0  0  0
 36 76  1  0  0  0  0
 37 77  1  0  0  0  0
 37 78  1  0  0  0  0
M  END
$$$$
