CHEBI:15887
 OpenBabel04242413253D

 19 18  0  0  0  0  0  0  0  0999 V2000
    2.4390    3.7528   -0.0044 N   0  0  0  0  0  0  0  0  0  0  0  0
    2.3575    2.3274    0.3459 C   0  0  0  0  0  0  0  0  0  0  0  0
    2.9398    1.4403   -0.7554 C   0  0  0  0  0  0  0  0  0  0  0  0
    4.4668    1.2862   -0.7250 C   0  0  0  0  0  0  0  0  0  0  0  0
    5.2872    2.5663   -0.8119 C   0  0  0  0  0  0  0  0  0  0  0  0
    5.0622    3.3175   -2.0987 C   0  0  0  0  0  0  0  0  0  0  0  0
    5.6808    3.1034   -3.1314 O   0  0  0  0  0  0  0  0  0  0  0  0
    4.0880    4.2477   -2.0134 O   0  0  0  0  0  0  0  0  0  0  0  0
    2.1672    4.2870    0.8293 H   0  0  0  0  0  0  0  0  0  0  0  0
    1.6709    3.9425   -0.6637 H   0  0  0  0  0  0  0  0  0  0  0  0
    1.3027    2.0735    0.5004 H   0  0  0  0  0  0  0  0  0  0  0  0
    2.8776    2.1500    1.2933 H   0  0  0  0  0  0  0  0  0  0  0  0
    2.6154    1.7911   -1.7429 H   0  0  0  0  0  0  0  0  0  0  0  0
    2.5103    0.4364   -0.6415 H   0  0  0  0  0  0  0  0  0  0  0  0
    4.7551    0.6213   -1.5491 H   0  0  0  0  0  0  0  0  0  0  0  0
    4.7449    0.7653    0.2001 H   0  0  0  0  0  0  0  0  0  0  0  0
    6.3551    2.3161   -0.7724 H   0  0  0  0  0  0  0  0  0  0  0  0
    5.1206    3.2252    0.0465 H   0  0  0  0  0  0  0  0  0  0  0  0
    3.6133    4.1997   -1.1424 H   0  0  0  0  0  0  0  0  0  0  0  0
  1  2  1  0  0  0  0
  1  9  1  0  0  0  0
  1 10  1  0  0  0  0
  2  3  1  0  0  0  0
  2 11  1  0  0  0  0
  2 12  1  0  0  0  0
  3  4  1  0  0  0  0
  3 13  1  0  0  0  0
  3 14  1  0  0  0  0
  4  5  1  0  0  0  0
  4 15  1  0  0  0  0
  4 16  1  0  0  0  0
  5  6  1  0  0  0  0
  5 17  1  0  0  0  0
  5 18  1  0  0  0  0
  6  7  2  0  0  0  0
  6  8  1  0  0  0  0
  8 19  1  0  0  0  0
M  END
$$$$
