CHEBI:17831
 OpenBabel04242417413D

 49 50  0  0  1  0  0  0  0  0999 V2000
    0.1387    0.4408   -2.8706 H   0  0  0  0  0  0  0  0  0  0  0  0
   -0.8105    0.3317   -2.6709 O   0  0  0  0  0  0  0  0  0  0  0  0
   -1.1092    1.4051   -1.7833 C   0  0  1  0  0  0  0  0  0  0  0  0
   -0.7171    0.9972   -0.4762 O   0  0  0  0  0  0  0  0  0  0  0  0
   -0.9295    1.9874    0.5450 C   0  0  2  0  0  0  0  0  0  0  0  0
   -2.4250    2.1845    0.8426 C   0  0  0  0  0  0  0  0  0  0  0  0
   -2.9677    0.9661    1.3535 O   0  0  0  0  0  0  0  0  0  0  0  0
   -0.1732    3.2900    0.2191 C   0  0  1  0  0  0  0  0  0  0  0  0
    1.2563    3.0875    0.2407 O   0  0  0  0  0  0  0  0  0  0  0  0
    1.8309    2.9493    1.5506 C   0  0  2  0  0  0  0  0  0  0  0  0
    1.5291    4.1058    2.3334 O   0  0  0  0  0  0  0  0  0  0  0  0
    2.1317    4.0279    3.6393 C   0  0  2  0  0  0  0  0  0  0  0  0
    1.7442    5.2862    4.4080 C   0  0  0  0  0  0  0  0  0  0  0  0
    2.0629    5.5137    5.5657 O   0  0  0  0  0  0  0  0  0  0  0  0
    0.9847    6.1337    3.6702 O   0  0  0  0  0  0  0  0  0  0  0  0
    3.6659    3.9119    3.5872 C   0  0  1  0  0  0  0  0  0  0  0  0
    4.0580    2.7132    4.2846 O   0  0  0  0  0  0  0  0  0  0  0  0
    4.1745    3.7985    2.1432 C   0  0  2  0  0  0  0  0  0  0  0  0
    4.1043    5.0735    1.5087 O   0  0  0  0  0  0  0  0  0  0  0  0
    3.3618    2.7363    1.3838 C   0  0  1  0  0  0  0  0  0  0  0  0
    3.7177    1.4204    1.8474 O   0  0  0  0  0  0  0  0  0  0  0  0
   -0.5225    3.7964   -1.1938 C   0  0  2  0  0  0  0  0  0  0  0  0
   -1.8625    4.3023   -1.2131 O   0  0  0  0  0  0  0  0  0  0  0  0
   -0.3841    2.6912   -2.2554 C   0  0  1  0  0  0  0  0  0  0  0  0
    1.0499    2.3309   -2.5615 N   0  0  0  0  0  0  0  0  0  0  0  0
    1.9236    3.3936   -3.5124 S   0  0  0  0  0  0  0  0  0  0  0  0
    2.0595    4.6341   -2.7912 O   0  0  0  0  0  0  0  0  0  0  0  0
    3.0669    2.6775   -4.0147 O   0  0  0  0  0  0  0  0  0  0  0  0
    0.9636    3.6450   -4.7709 O   0  0  0  0  0  0  0  0  0  0  0  0
   -2.1940    1.5398   -1.8136 H   0  0  0  0  0  0  0  0  0  0  0  0
   -0.5006    1.5334    1.4428 H   0  0  0  0  0  0  0  0  0  0  0  0
   -2.5715    2.9585    1.6021 H   0  0  0  0  0  0  0  0  0  0  0  0
   -3.0147    2.4480   -0.0367 H   0  0  0  0  0  0  0  0  0  0  0  0
   -2.6631    0.2525    0.7596 H   0  0  0  0  0  0  0  0  0  0  0  0
   -0.4442    4.0676    0.9430 H   0  0  0  0  0  0  0  0  0  0  0  0
    1.3960    2.0698    2.0358 H   0  0  0  0  0  0  0  0  0  0  0  0
    1.6694    3.1869    4.1717 H   0  0  0  0  0  0  0  0  0  0  0  0
    0.8945    5.7543    2.7655 H   0  0  0  0  0  0  0  0  0  0  0  0
    4.1525    4.7615    4.0821 H   0  0  0  0  0  0  0  0  0  0  0  0
    4.5594    2.9997    5.0747 H   0  0  0  0  0  0  0  0  0  0  0  0
    5.2284    3.4936    2.1665 H   0  0  0  0  0  0  0  0  0  0  0  0
    4.5098    4.9880    0.6252 H   0  0  0  0  0  0  0  0  0  0  0  0
    3.6240    2.7609    0.3201 H   0  0  0  0  0  0  0  0  0  0  0  0
    3.8368    1.4644    2.8213 H   0  0  0  0  0  0  0  0  0  0  0  0
    0.1273    4.6387   -1.4409 H   0  0  0  0  0  0  0  0  0  0  0  0
   -1.8081    5.2772   -1.1966 H   0  0  0  0  0  0  0  0  0  0  0  0
   -0.8648    2.9911   -3.1944 H   0  0  0  0  0  0  0  0  0  0  0  0
    1.5693    2.1512   -1.6922 H   0  0  0  0  0  0  0  0  0  0  0  0
    1.4093    3.2683   -5.5586 H   0  0  0  0  0  0  0  0  0  0  0  0
  1  2  1  0  0  0  0
  3  4  1  0  0  0  0
  3 24  1  0  0  0  0
  3  2  1  0  0  0  0
  3 30  1  6  0  0  0
  4  5  1  0  0  0  0
  5  8  1  0  0  0  0
  5  6  1  0  0  0  0
  5 31  1  1  0  0  0
  6  7  1  0  0  0  0
  6 32  1  0  0  0  0
  6 33  1  0  0  0  0
  7 34  1  0  0  0  0
  8  9  1  0  0  0  0
  8 22  1  0  0  0  0
  8 35  1  1  0  0  0
  9 10  1  0  0  0  0
 10 11  1  0  0  0  0
 10 20  1  0  0  0  0
 10 36  1  1  0  0  0
 11 12  1  0  0  0  0
 12 16  1  0  0  0  0
 12 13  1  0  0  0  0
 12 37  1  1  0  0  0
 13 14  2  0  0  0  0
 13 15  1  0  0  0  0
 15 38  1  0  0  0  0
 16 17  1  0  0  0  0
 16 18  1  0  0  0  0
 16 39  1  1  0  0  0
 17 40  1  0  0  0  0
 18 20  1  0  0  0  0
 18 19  1  0  0  0  0
 18 41  1  1  0  0  0
 19 42  1  0  0  0  0
 20 21  1  0  0  0  0
 20 43  1  6  0  0  0
 21 44  1  0  0  0  0
 22 24  1  0  0  0  0
 22 23  1  0  0  0  0
 22 45  1  6  0  0  0
 23 46  1  0  0  0  0
 24 25  1  0  0  0  0
 24 47  1  6  0  0  0
 25 26  1  0  0  0  0
 25 48  1  0  0  0  0
 26 27  2  0  0  0  0
 26 28  2  0  0  0  0
 26 29  1  0  0  0  0
 29 49  1  0  0  0  0
M  END
$$$$
