CHEBI:9611
 OpenBabel04242411403D

 30 30  0  0  0  0  0  0  0  0999 V2000
    2.1051    1.3457   -0.5141 C   0  0  0  0  0  0  0  0  0  0  0  0
    1.2109    0.1355   -0.5983 C   0  0  0  0  0  0  0  0  0  0  0  0
    1.6803   -1.0651   -0.0397 C   0  0  0  0  0  0  0  0  0  0  0  0
    0.8957   -2.2109   -0.0587 C   0  0  0  0  0  0  0  0  0  0  0  0
   -0.3539   -2.1786   -0.6668 C   0  0  0  0  0  0  0  0  0  0  0  0
   -0.8460   -1.0013   -1.2622 C   0  0  0  0  0  0  0  0  0  0  0  0
   -2.1548   -1.1221   -1.9965 C   0  0  0  0  0  0  0  0  0  0  0  0
   -0.0813    0.1828   -1.1803 C   0  0  0  0  0  0  0  0  0  0  0  0
   -0.5112    1.4245   -1.7113 N   0  0  0  0  0  0  0  0  0  0  0  0
   -1.7921    1.9494   -1.6266 C   0  0  0  0  0  0  0  0  0  0  0  0
   -2.7319    1.4664   -0.9999 O   0  0  0  0  0  0  0  0  0  0  0  0
   -1.9308    3.3015   -2.3690 C   0  0  0  0  0  0  0  0  0  0  0  0
   -1.8013    3.1075   -3.8748 C   0  0  0  0  0  0  0  0  0  0  0  0
   -3.2369    3.9187   -2.0624 N   0  0  0  0  0  0  0  0  0  0  0  0
    3.0292    1.1297    0.0329 H   0  0  0  0  0  0  0  0  0  0  0  0
    1.5980    2.1589    0.0151 H   0  0  0  0  0  0  0  0  0  0  0  0
    2.3885    1.6779   -1.5179 H   0  0  0  0  0  0  0  0  0  0  0  0
    2.6616   -1.1108    0.4280 H   0  0  0  0  0  0  0  0  0  0  0  0
    1.2617   -3.1325    0.3860 H   0  0  0  0  0  0  0  0  0  0  0  0
   -0.9449   -3.0924   -0.6984 H   0  0  0  0  0  0  0  0  0  0  0  0
   -2.2513   -2.1183   -2.4448 H   0  0  0  0  0  0  0  0  0  0  0  0
   -2.2217   -0.4169   -2.8298 H   0  0  0  0  0  0  0  0  0  0  0  0
   -2.9950   -0.9809   -1.3111 H   0  0  0  0  0  0  0  0  0  0  0  0
    0.2127    2.1107   -1.8748 H   0  0  0  0  0  0  0  0  0  0  0  0
   -1.1449    3.9751   -2.0095 H   0  0  0  0  0  0  0  0  0  0  0  0
   -2.5453    2.3963   -4.2517 H   0  0  0  0  0  0  0  0  0  0  0  0
   -0.8134    2.7148   -4.1383 H   0  0  0  0  0  0  0  0  0  0  0  0
   -1.9335    4.0557   -4.4074 H   0  0  0  0  0  0  0  0  0  0  0  0
   -3.3303    3.9534   -1.0436 H   0  0  0  0  0  0  0  0  0  0  0  0
   -3.9640    3.2503   -2.3328 H   0  0  0  0  0  0  0  0  0  0  0  0
  1  2  1  0  0  0  0
  1 15  1  0  0  0  0
  1 16  1  0  0  0  0
  1 17  1  0  0  0  0
  2  3  1  0  0  0  0
  2  8  2  0  0  0  0
  3  4  2  0  0  0  0
  3 18  1  0  0  0  0
  4  5  1  0  0  0  0
  4 19  1  0  0  0  0
  5  6  2  0  0  0  0
  5 20  1  0  0  0  0
  6  7  1  0  0  0  0
  6  8  1  0  0  0  0
  7 21  1  0  0  0  0
  7 22  1  0  0  0  0
  7 23  1  0  0  0  0
  8  9  1  0  0  0  0
  9 10  1  0  0  0  0
  9 24  1  0  0  0  0
 10 11  2  0  0  0  0
 10 12  1  0  0  0  0
 12 13  1  0  0  0  0
 12 14  1  0  0  0  0
 12 25  1  0  0  0  0
 13 26  1  0  0  0  0
 13 27  1  0  0  0  0
 13 28  1  0  0  0  0
 14 29  1  0  0  0  0
 14 30  1  0  0  0  0
M  END
$$$$
