CHEBI:15471
 OpenBabel04242412023D

117119  0  0  1  0  0  0  0  0999 V2000
   21.0091   16.3078  -11.8187 C   0  0  0  0  0  0  0  0  0  0  0  0
   22.3892   16.0448  -11.2366 C   0  0  0  0  0  0  0  0  0  0  0  0
   22.5843   16.7484   -9.8920 C   0  0  0  0  0  0  0  0  0  0  0  0
   23.9741   16.4615   -9.3125 C   0  0  0  0  0  0  0  0  0  0  0  0
   24.1750   17.1469   -7.9577 C   0  0  0  0  0  0  0  0  0  0  0  0
   25.5930   16.9851   -7.3903 C   0  0  0  0  0  0  0  0  0  0  0  0
   25.9375   15.5431   -7.0052 C   0  0  0  0  0  0  0  0  0  0  0  0
   27.3214   15.4306   -6.3452 C   0  0  0  0  0  0  0  0  0  0  0  0
   27.5996   13.9841   -5.9150 C   0  0  0  0  0  0  0  0  0  0  0  0
   28.9261   13.7916   -5.2250 C   0  0  0  0  0  0  0  0  0  0  0  0
   29.6664   12.6797   -5.3801 C   0  0  0  0  0  0  0  0  0  0  0  0
   30.9253   12.4440   -4.6174 C   0  0  0  0  0  0  0  0  0  0  0  0
   31.4551   13.2688   -3.8916 O   0  0  0  0  0  0  0  0  0  0  0  0
   31.5713   10.8303   -4.8679 S   0  0  0  0  0  0  0  0  0  0  0  0
   32.6433   10.6520   -3.4025 C   0  0  0  0  0  0  0  0  0  0  0  0
   34.0584   11.1710   -3.6738 C   0  0  0  0  0  0  0  0  0  0  0  0
   34.9863   10.9988   -2.5600 N   0  0  0  0  0  0  0  0  0  0  0  0
   35.4121    9.7557   -2.1338 C   0  0  0  0  0  0  0  0  0  0  0  0
   34.9523    8.7034   -2.5612 O   0  0  0  0  0  0  0  0  0  0  0  0
   36.5455    9.8201   -1.1276 C   0  0  0  0  0  0  0  0  0  0  0  0
   36.7838    8.4738   -0.4522 C   0  0  0  0  0  0  0  0  0  0  0  0
   37.9258    8.5293    0.4506 N   0  0  0  0  0  0  0  0  0  0  0  0
   37.8688    8.1243    1.7730 C   0  0  0  0  0  0  0  0  0  0  0  0
   36.8409    7.7520    2.3237 O   0  0  0  0  0  0  0  0  0  0  0  0
   39.2480    8.2230    2.4733 C   0  0  2  0  0  0  0  0  0  0  0  0
   40.2341    7.6325    1.6126 O   0  0  0  0  0  0  0  0  0  0  0  0
   39.3483    7.6717    3.9290 C   0  0  0  0  0  0  0  0  0  0  0  0
   40.7992    7.8729    4.4326 C   0  0  0  0  0  0  0  0  0  0  0  0
   38.4273    8.4720    4.8739 C   0  0  0  0  0  0  0  0  0  0  0  0
   39.0000    6.1655    3.9935 C   0  0  0  0  0  0  0  0  0  0  0  0
   39.1758    5.6387    5.3064 O   0  0  0  0  0  0  0  0  0  0  0  0
   39.0689    4.0363    5.4487 P   0  0  0  0  0  0  0  0  0  0  0  0
   40.0152    3.2922    4.5693 O   0  0  0  0  0  0  0  0  0  0  0  0
   39.3812    3.8104    7.0019 O   0  0  0  0  0  0  0  0  0  0  0  0
   37.5241    3.7187    5.3031 O   0  0  0  0  0  0  0  0  0  0  0  0
   36.8851    2.2743    5.4198 P   0  0  0  0  0  0  0  0  0  0  0  0
   37.5976    1.1534    4.7432 O   0  0  0  0  0  0  0  0  0  0  0  0
   35.4104    2.5352    4.8403 O   0  0  0  0  0  0  0  0  0  0  0  0
   36.5665    2.0351    6.9757 O   0  0  0  0  0  0  0  0  0  0  0  0
   35.9348    0.7982    7.3072 C   0  0  0  0  0  0  0  0  0  0  0  0
   35.4231    0.8526    8.7456 C   0  0  1  0  0  0  0  0  0  0  0  0
   34.3932    1.8610    8.8501 O   0  0  0  0  0  0  0  0  0  0  0  0
   33.4635    1.4357    9.8707 C   0  0  1  0  0  0  0  0  0  0  0  0
   32.1272    1.5777    9.3331 N   0  0  0  0  0  0  0  0  0  0  0  0
   31.3728    2.7216    9.4235 C   0  0  0  0  0  0  0  0  0  0  0  0
   30.1897    2.5809    8.8643 N   0  0  0  0  0  0  0  0  0  0  0  0
   30.1829    1.2897    8.3791 C   0  0  0  0  0  0  0  0  0  0  0  0
   29.2177    0.5428    7.6827 C   0  0  0  0  0  0  0  0  0  0  0  0
   27.9665    1.0435    7.3443 N   0  0  0  0  0  0  0  0  0  0  0  0
   29.5242   -0.7192    7.3052 N   0  0  0  0  0  0  0  0  0  0  0  0
   30.7354   -1.2122    7.6389 C   0  0  0  0  0  0  0  0  0  0  0  0
   31.7274   -0.5978    8.3142 N   0  0  0  0  0  0  0  0  0  0  0  0
   31.3848    0.6555    8.6495 C   0  0  0  0  0  0  0  0  0  0  0  0
   33.8807    0.0326   10.3374 C   0  0  2  0  0  0  0  0  0  0  0  0
   34.6426    0.1386   11.5552 O   0  0  0  0  0  0  0  0  0  0  0  0
   34.7713   -0.4510    9.1967 C   0  0  2  0  0  0  0  0  0  0  0  0
   35.7210   -1.4317    9.5834 O   0  0  0  0  0  0  0  0  0  0  0  0
   35.1526   -2.8512   10.0547 P   0  0  0  0  0  0  0  0  0  0  0  0
   34.0612   -3.4473    9.2414 O   0  0  0  0  0  0  0  0  0  0  0  0
   36.4537   -3.7413   10.2640 O   0  0  0  0  0  0  0  0  0  0  0  0
   34.7149   -2.6019   11.5742 O   0  0  0  0  0  0  0  0  0  0  0  0
   20.8995   15.7933  -12.7789 H   0  0  0  0  0  0  0  0  0  0  0  0
   20.8501   17.3776  -11.9876 H   0  0  0  0  0  0  0  0  0  0  0  0
   20.2236   15.9442  -11.1485 H   0  0  0  0  0  0  0  0  0  0  0  0
   23.1492   16.3873  -11.9485 H   0  0  0  0  0  0  0  0  0  0  0  0
   22.5244   14.9639  -11.1133 H   0  0  0  0  0  0  0  0  0  0  0  0
   21.8143   16.4130   -9.1866 H   0  0  0  0  0  0  0  0  0  0  0  0
   22.4544   17.8297  -10.0221 H   0  0  0  0  0  0  0  0  0  0  0  0
   24.7401   16.8092  -10.0160 H   0  0  0  0  0  0  0  0  0  0  0  0
   24.0980   15.3784   -9.2047 H   0  0  0  0  0  0  0  0  0  0  0  0
   23.4436   16.7620   -7.2366 H   0  0  0  0  0  0  0  0  0  0  0  0
   23.9721   18.2197   -8.0684 H   0  0  0  0  0  0  0  0  0  0  0  0
   25.6755   17.6202   -6.4995 H   0  0  0  0  0  0  0  0  0  0  0  0
   26.3240   17.3614   -8.1158 H   0  0  0  0  0  0  0  0  0  0  0  0
   25.9166   14.9043   -7.8952 H   0  0  0  0  0  0  0  0  0  0  0  0
   25.1738   15.1627   -6.3157 H   0  0  0  0  0  0  0  0  0  0  0  0
   27.3638   16.0908   -5.4699 H   0  0  0  0  0  0  0  0  0  0  0  0
   28.0939   15.7711   -7.0453 H   0  0  0  0  0  0  0  0  0  0  0  0
   27.5341   13.3313   -6.7947 H   0  0  0  0  0  0  0  0  0  0  0  0
   26.8129   13.6675   -5.2192 H   0  0  0  0  0  0  0  0  0  0  0  0
   29.2502   14.5661   -4.5312 H   0  0  0  0  0  0  0  0  0  0  0  0
   29.3332   11.8868   -6.0416 H   0  0  0  0  0  0  0  0  0  0  0  0
   32.6720    9.5830   -3.1706 H   0  0  0  0  0  0  0  0  0  0  0  0
   32.1993   11.1457   -2.5316 H   0  0  0  0  0  0  0  0  0  0  0  0
   34.0371   12.2446   -3.8900 H   0  0  0  0  0  0  0  0  0  0  0  0
   34.4978   10.6588   -4.5379 H   0  0  0  0  0  0  0  0  0  0  0  0
   35.5157   11.8120   -2.2709 H   0  0  0  0  0  0  0  0  0  0  0  0
   36.3219   10.5832   -0.3733 H   0  0  0  0  0  0  0  0  0  0  0  0
   37.4498   10.1345   -1.6632 H   0  0  0  0  0  0  0  0  0  0  0  0
   37.0084    7.6987   -1.1933 H   0  0  0  0  0  0  0  0  0  0  0  0
   35.8878    8.1579    0.0927 H   0  0  0  0  0  0  0  0  0  0  0  0
   38.8572    8.6294    0.0550 H   0  0  0  0  0  0  0  0  0  0  0  0
   39.4854    9.2952    2.4994 H   0  0  0  0  0  0  0  0  0  0  0  0
   39.9947    6.6979    1.4778 H   0  0  0  0  0  0  0  0  0  0  0  0
   41.1038    8.9221    4.3408 H   0  0  0  0  0  0  0  0  0  0  0  0
   41.5114    7.2665    3.8627 H   0  0  0  0  0  0  0  0  0  0  0  0
   40.9034    7.5964    5.4880 H   0  0  0  0  0  0  0  0  0  0  0  0
   38.6031    9.5493    4.7736 H   0  0  0  0  0  0  0  0  0  0  0  0
   38.6036    8.2090    5.9231 H   0  0  0  0  0  0  0  0  0  0  0  0
   37.3686    8.2866    4.6721 H   0  0  0  0  0  0  0  0  0  0  0  0
   39.6442    5.6025    3.3101 H   0  0  0  0  0  0  0  0  0  0  0  0
   37.9618    5.9858    3.7004 H   0  0  0  0  0  0  0  0  0  0  0  0
   40.3325    3.6377    7.1316 H   0  0  0  0  0  0  0  0  0  0  0  0
   34.9603    3.2590    5.3116 H   0  0  0  0  0  0  0  0  0  0  0  0
   36.6608   -0.0110    7.1820 H   0  0  0  0  0  0  0  0  0  0  0  0
   35.0960    0.6379    6.6204 H   0  0  0  0  0  0  0  0  0  0  0  0
   36.2436    1.1450    9.4131 H   0  0  0  0  0  0  0  0  0  0  0  0
   33.5469    2.1469   10.7021 H   0  0  0  0  0  0  0  0  0  0  0  0
   31.7373    3.6217    9.9036 H   0  0  0  0  0  0  0  0  0  0  0  0
   27.9334    2.0570    7.3330 H   0  0  0  0  0  0  0  0  0  0  0  0
   27.5670    0.5531    6.5550 H   0  0  0  0  0  0  0  0  0  0  0  0
   30.9357   -2.2330    7.3233 H   0  0  0  0  0  0  0  0  0  0  0  0
   33.0421   -0.6330   10.5591 H   0  0  0  0  0  0  0  0  0  0  0  0
   34.8289   -0.7805   11.8444 H   0  0  0  0  0  0  0  0  0  0  0  0
   34.1701   -0.8523    8.3759 H   0  0  0  0  0  0  0  0  0  0  0  0
   37.1186   -3.2994   10.8211 H   0  0  0  0  0  0  0  0  0  0  0  0
   34.1432   -3.3418   11.8671 H   0  0  0  0  0  0  0  0  0  0  0  0
  1  2  1  0  0  0  0
  1 62  1  0  0  0  0
  1 63  1  0  0  0  0
  1 64  1  0  0  0  0
  2  3  1  0  0  0  0
  2 65  1  0  0  0  0
  2 66  1  0  0  0  0
  3  4  1  0  0  0  0
  3 67  1  0  0  0  0
  3 68  1  0  0  0  0
  4  5  1  0  0  0  0
  4 69  1  0  0  0  0
  4 70  1  0  0  0  0
  5  6  1  0  0  0  0
  5 71  1  0  0  0  0
  5 72  1  0  0  0  0
  6  7  1  0  0  0  0
  6 73  1  0  0  0  0
  6 74  1  0  0  0  0
  7  8  1  0  0  0  0
  7 75  1  0  0  0  0
  7 76  1  0  0  0  0
  8  9  1  0  0  0  0
  8 77  1  0  0  0  0
  8 78  1  0  0  0  0
  9 10  1  0  0  0  0
  9 79  1  0  0  0  0
  9 80  1  0  0  0  0
 10 11  2  0  0  0  0
 10 81  1  0  0  0  0
 11 12  1  0  0  0  0
 11 82  1  0  0  0  0
 12 13  2  0  0  0  0
 12 14  1  0  0  0  0
 14 15  1  0  0  0  0
 15 16  1  0  0  0  0
 15 83  1  0  0  0  0
 15 84  1  0  0  0  0
 16 17  1  0  0  0  0
 16 85  1  0  0  0  0
 16 86  1  0  0  0  0
 17 18  1  0  0  0  0
 17 87  1  0  0  0  0
 18 19  2  0  0  0  0
 18 20  1  0  0  0  0
 20 21  1  0  0  0  0
 20 88  1  0  0  0  0
 20 89  1  0  0  0  0
 21 22  1  0  0  0  0
 21 90  1  0  0  0  0
 21 91  1  0  0  0  0
 22 23  1  0  0  0  0
 22 92  1  0  0  0  0
 23 24  2  0  0  0  0
 25 27  1  0  0  0  0
 25 26  1  0  0  0  0
 25 23  1  0  0  0  0
 25 93  1  1  0  0  0
 26 94  1  0  0  0  0
 27 28  1  0  0  0  0
 27 29  1  0  0  0  0
 27 30  1  0  0  0  0
 28 95  1  0  0  0  0
 28 96  1  0  0  0  0
 28 97  1  0  0  0  0
 29 98  1  0  0  0  0
 29 99  1  0  0  0  0
 29100  1  0  0  0  0
 30 31  1  0  0  0  0
 30101  1  0  0  0  0
 30102  1  0  0  0  0
 31 32  1  0  0  0  0
 32 33  2  0  0  0  0
 32 34  1  0  0  0  0
 32 35  1  0  0  0  0
 34103  1  0  0  0  0
 35 36  1  0  0  0  0
 36 37  2  0  0  0  0
 36 38  1  0  0  0  0
 36 39  1  0  0  0  0
 38104  1  0  0  0  0
 39 40  1  0  0  0  0
 40105  1  0  0  0  0
 40106  1  0  0  0  0
 41 42  1  0  0  0  0
 41 56  1  0  0  0  0
 41 40  1  0  0  0  0
 41107  1  1  0  0  0
 42 43  1  0  0  0  0
 43 54  1  0  0  0  0
 43 44  1  0  0  0  0
 43108  1  1  0  0  0
 44 45  1  0  0  0  0
 44 53  1  0  0  0  0
 45 46  2  0  0  0  0
 45109  1  0  0  0  0
 46 47  1  0  0  0  0
 47 48  1  0  0  0  0
 47 53  2  0  0  0  0
 48 49  1  0  0  0  0
 48 50  2  0  0  0  0
 49110  1  0  0  0  0
 49111  1  0  0  0  0
 50 51  1  0  0  0  0
 51 52  2  0  0  0  0
 51112  1  0  0  0  0
 52 53  1  0  0  0  0
 54 55  1  0  0  0  0
 54 56  1  0  0  0  0
 54113  1  1  0  0  0
 55114  1  0  0  0  0
 56 57  1  0  0  0  0
 56115  1  6  0  0  0
 57 58  1  0  0  0  0
 58 59  2  0  0  0  0
 58 60  1  0  0  0  0
 58 61  1  0  0  0  0
 60116  1  0  0  0  0
 61117  1  0  0  0  0
M  END
$$$$
