CHEBI:17789
 OpenBabel04242417363D

 44 49  0  0  0  0  0  0  0  0999 V2000
    3.0330    0.9804    0.3883 C   0  0  0  0  0  0  0  0  0  0  0  0
    2.3920   -0.2393    0.0030 O   0  0  0  0  0  0  0  0  0  0  0  0
    3.1430   -0.8869   -0.9481 C   0  0  0  0  0  0  0  0  0  0  0  0
    2.7445   -0.6770   -2.2761 C   0  0  0  0  0  0  0  0  0  0  0  0
    3.4968   -1.2545   -3.2704 C   0  0  0  0  0  0  0  0  0  0  0  0
    4.6107   -2.0043   -2.9863 C   0  0  0  0  0  0  0  0  0  0  0  0
    5.0217   -2.2320   -1.6836 C   0  0  0  0  0  0  0  0  0  0  0  0
    4.2446   -1.7190   -0.6172 C   0  0  0  0  0  0  0  0  0  0  0  0
    4.6778   -2.0861    0.7557 C   0  0  0  0  0  0  0  0  0  0  0  0
    3.8087   -2.0913    1.8550 C   0  0  0  0  0  0  0  0  0  0  0  0
    4.2540   -2.4212    3.1372 C   0  0  0  0  0  0  0  0  0  0  0  0
    5.5825   -2.7892    3.3660 C   0  0  0  0  0  0  0  0  0  0  0  0
    6.0038   -3.1191    4.6667 C   0  0  0  0  0  0  0  0  0  0  0  0
    7.3114   -3.5069    4.8547 C   0  0  0  0  0  0  0  0  0  0  0  0
    8.1947   -3.5839    3.8109 C   0  0  0  0  0  0  0  0  0  0  0  0
    7.8188   -3.2705    2.5226 C   0  0  0  0  0  0  0  0  0  0  0  0
    6.4925   -2.8458    2.2701 C   0  0  0  0  0  0  0  0  0  0  0  0
    6.0261   -2.4977    0.9658 C   0  0  0  0  0  0  0  0  0  0  0  0
    6.9265   -2.5748   -0.1480 N   0  0  0  0  0  0  0  0  0  0  0  0
    7.6797   -1.3238   -0.2996 C   0  0  0  0  0  0  0  0  0  0  0  0
    6.2461   -3.0444   -1.3710 C   0  0  0  0  0  0  0  0  0  0  0  0
    9.4302   -3.9943    4.2036 O   0  0  0  0  0  0  0  0  0  0  0  0
    9.2190   -4.1685    5.6195 C   0  0  0  0  0  0  0  0  0  0  0  0
    7.8746   -3.8585    6.0413 O   0  0  0  0  0  0  0  0  0  0  0  0
    5.2198   -2.4628   -4.1144 O   0  0  0  0  0  0  0  0  0  0  0  0
    4.3483   -1.9336   -5.1351 C   0  0  0  0  0  0  0  0  0  0  0  0
    3.2636   -1.1466   -4.6053 O   0  0  0  0  0  0  0  0  0  0  0  0
    2.2793    1.6182    0.8597 H   0  0  0  0  0  0  0  0  0  0  0  0
    3.4462    1.5243   -0.4692 H   0  0  0  0  0  0  0  0  0  0  0  0
    3.8200    0.7861    1.1233 H   0  0  0  0  0  0  0  0  0  0  0  0
    1.8801   -0.0671   -2.5116 H   0  0  0  0  0  0  0  0  0  0  0  0
    2.7559   -1.8491    1.7329 H   0  0  0  0  0  0  0  0  0  0  0  0
    3.5381   -2.3986    3.9566 H   0  0  0  0  0  0  0  0  0  0  0  0
    5.3257   -3.0810    5.5126 H   0  0  0  0  0  0  0  0  0  0  0  0
    8.5401   -3.3583    1.7167 H   0  0  0  0  0  0  0  0  0  0  0  0
    8.2476   -1.0843    0.6061 H   0  0  0  0  0  0  0  0  0  0  0  0
    7.0291   -0.4731   -0.5327 H   0  0  0  0  0  0  0  0  0  0  0  0
    8.4069   -1.4265   -1.1126 H   0  0  0  0  0  0  0  0  0  0  0  0
    5.9572   -4.0964   -1.2476 H   0  0  0  0  0  0  0  0  0  0  0  0
    6.9589   -3.0094   -2.2037 H   0  0  0  0  0  0  0  0  0  0  0  0
    9.9149   -3.5169    6.1605 H   0  0  0  0  0  0  0  0  0  0  0  0
    9.4373   -5.2103    5.8813 H   0  0  0  0  0  0  0  0  0  0  0  0
    3.9301   -2.7694   -5.7079 H   0  0  0  0  0  0  0  0  0  0  0  0
    4.9408   -1.3056   -5.8102 H   0  0  0  0  0  0  0  0  0  0  0  0
  1  2  1  0  0  0  0
  1 28  1  0  0  0  0
  1 29  1  0  0  0  0
  1 30  1  0  0  0  0
  2  3  1  0  0  0  0
  3  4  1  0  0  0  0
  3  8  2  0  0  0  0
  4  5  2  0  0  0  0
  4 31  1  0  0  0  0
  5  6  1  0  0  0  0
  5 27  1  0  0  0  0
  6  7  2  0  0  0  0
  6 25  1  0  0  0  0
  7  8  1  0  0  0  0
  7 21  1  0  0  0  0
  8  9  1  0  0  0  0
  9 10  1  0  0  0  0
  9 18  2  0  0  0  0
 10 11  2  0  0  0  0
 10 32  1  0  0  0  0
 11 12  1  0  0  0  0
 11 33  1  0  0  0  0
 12 13  1  0  0  0  0
 12 17  2  0  0  0  0
 13 14  2  0  0  0  0
 13 34  1  0  0  0  0
 14 15  1  0  0  0  0
 14 24  1  0  0  0  0
 15 16  2  0  0  0  0
 15 22  1  0  0  0  0
 16 17  1  0  0  0  0
 16 35  1  0  0  0  0
 17 18  1  0  0  0  0
 18 19  1  0  0  0  0
 19 20  1  0  0  0  0
 19 21  1  0  0  0  0
 20 36  1  0  0  0  0
 20 37  1  0  0  0  0
 20 38  1  0  0  0  0
 21 39  1  0  0  0  0
 21 40  1  0  0  0  0
 22 23  1  0  0  0  0
 23 24  1  0  0  0  0
 23 41  1  0  0  0  0
 23 42  1  0  0  0  0
 25 26  1  0  0  0  0
 26 27  1  0  0  0  0
 26 43  1  0  0  0  0
 26 44  1  0  0  0  0
M  END
$$$$
