CHEBI:15916
 OpenBabel04242413283D

 27 26  0  0  0  0  0  0  0  0999 V2000
    6.7121    2.1461   -1.6097 N   0  0  0  0  0  0  0  0  0  0  0  0
    5.7376    1.9930   -0.5172 C   0  0  0  0  0  0  0  0  0  0  0  0
    5.3320    0.5272   -0.3562 C   0  0  0  0  0  0  0  0  0  0  0  0
    4.4241    0.1109   -1.3678 O   0  0  0  0  0  0  0  0  0  0  0  0
    5.0008    0.3288   -2.9842 P   0  0  0  0  0  0  0  0  0  0  0  0
    4.3397   -0.9917   -3.4035 O   0  0  0  0  0  0  0  0  0  0  0  0
    3.8317    1.4390   -3.2517 O   0  0  0  0  0  0  0  0  0  0  0  0
    5.5775    0.5466   -4.6006 O   0  0  0  0  0  0  0  0  0  0  0  0
    6.9264    0.1055   -4.7832 C   0  0  0  0  0  0  0  0  0  0  0  0
    7.1111   -1.3890   -4.4752 C   0  0  0  0  0  0  0  0  0  0  0  0
    6.1849   -2.2672   -5.2568 N   0  0  0  0  0  0  0  0  0  0  0  0
    8.5499   -1.8194   -4.7560 C   0  0  0  0  0  0  0  0  0  0  0  0
    9.5447   -1.1709   -4.4701 O   0  0  0  0  0  0  0  0  0  0  0  0
    8.5906   -3.0546   -5.3194 O   0  0  0  0  0  0  0  0  0  0  0  0
    6.7416    3.1403   -1.8608 H   0  0  0  0  0  0  0  0  0  0  0  0
    7.6485    1.9562   -1.2409 H   0  0  0  0  0  0  0  0  0  0  0  0
    4.8542    2.6001   -0.7417 H   0  0  0  0  0  0  0  0  0  0  0  0
    6.1853    2.3661    0.4097 H   0  0  0  0  0  0  0  0  0  0  0  0
    4.8244    0.3934    0.6043 H   0  0  0  0  0  0  0  0  0  0  0  0
    6.2030   -0.1377   -0.3633 H   0  0  0  0  0  0  0  0  0  0  0  0
    3.0577    0.9485   -3.5843 H   0  0  0  0  0  0  0  0  0  0  0  0
    7.5790    0.7161   -4.1501 H   0  0  0  0  0  0  0  0  0  0  0  0
    7.1996    0.3174   -5.8232 H   0  0  0  0  0  0  0  0  0  0  0  0
    6.9329   -1.5959   -3.4141 H   0  0  0  0  0  0  0  0  0  0  0  0
    6.0439   -1.8394   -6.1792 H   0  0  0  0  0  0  0  0  0  0  0  0
    5.2533   -2.1330   -4.8182 H   0  0  0  0  0  0  0  0  0  0  0  0
    7.6426   -3.3290   -5.4324 H   0  0  0  0  0  0  0  0  0  0  0  0
  1  2  1  0  0  0  0
  1 15  1  0  0  0  0
  1 16  1  0  0  0  0
  2  3  1  0  0  0  0
  2 17  1  0  0  0  0
  2 18  1  0  0  0  0
  3  4  1  0  0  0  0
  3 19  1  0  0  0  0
  3 20  1  0  0  0  0
  4  5  1  0  0  0  0
  5  6  2  0  0  0  0
  5  7  1  0  0  0  0
  5  8  1  0  0  0  0
  7 21  1  0  0  0  0
  8  9  1  0  0  0  0
  9 10  1  0  0  0  0
  9 22  1  0  0  0  0
  9 23  1  0  0  0  0
 10 11  1  0  0  0  0
 10 12  1  0  0  0  0
 10 24  1  0  0  0  0
 11 25  1  0  0  0  0
 11 26  1  0  0  0  0
 12 13  2  0  0  0  0
 12 14  1  0  0  0  0
 14 27  1  0  0  0  0
M  END
$$$$
