CHEBI:17708
 OpenBabel04242417093D

 18 18  0  0  0  0  0  0  0  0999 V2000
    1.0061   -0.5327   -0.5555 O   0  0  0  0  0  0  0  0  0  0  0  0
    2.0081   -0.3265    0.1808 C   0  0  0  0  0  0  0  0  0  0  0  0
    2.2161    0.6077    1.0258 O   0  5  0  0  0  0  0  0  0  0  0  0
    3.2123   -1.3330    0.0961 C   0  0  0  0  0  0  0  0  0  0  0  0
    4.3334   -0.7719    0.8619 O   0  0  0  0  0  0  0  0  0  0  0  0
    2.8398   -2.6156    0.8010 C   0  0  0  0  0  0  0  0  0  0  0  0
    2.8490   -3.8108    0.1939 C   0  0  0  0  0  0  0  0  0  0  0  0
    3.2254   -3.9488   -1.1899 C   0  0  0  0  0  0  0  0  0  0  0  0
    3.5952   -2.8920   -1.9270 C   0  0  0  0  0  0  0  0  0  0  0  0
    3.6444   -1.4845   -1.3896 C   0  0  0  0  0  0  0  0  0  0  0  0
    5.0245   -1.0826   -1.5472 O   0  0  0  0  0  0  0  0  0  0  0  0
    3.8947    0.0143    1.2796 H   0  0  0  0  0  0  0  0  0  0  0  0
    2.5370   -2.5313    1.8398 H   0  0  0  0  0  0  0  0  0  0  0  0
    2.5601   -4.7052    0.7351 H   0  0  0  0  0  0  0  0  0  0  0  0
    3.2035   -4.9429   -1.6232 H   0  0  0  0  0  0  0  0  0  0  0  0
    3.8783   -3.0237   -2.9652 H   0  0  0  0  0  0  0  0  0  0  0  0
    3.0573   -0.8417   -2.0541 H   0  0  0  0  0  0  0  0  0  0  0  0
    5.2917   -0.8703   -0.6257 H   0  0  0  0  0  0  0  0  0  0  0  0
  1  2  2  0  0  0  0
  2  3  1  0  0  0  0
  2  4  1  0  0  0  0
  4  5  1  0  0  0  0
  4  6  1  0  0  0  0
  4 10  1  0  0  0  0
  5 12  1  0  0  0  0
  6  7  2  0  0  0  0
  6 13  1  0  0  0  0
  7  8  1  0  0  0  0
  7 14  1  0  0  0  0
  8  9  2  0  0  0  0
  8 15  1  0  0  0  0
  9 10  1  0  0  0  0
  9 16  1  0  0  0  0
 10 11  1  0  0  0  0
 10 17  1  0  0  0  0
 11 18  1  0  0  0  0
M  CHG  1   3  -1
M  END
$$$$
