CHEBI:16343
 OpenBabel04242414133D

 21 21  0  0  0  0  0  0  0  0999 V2000
    1.1579   -1.7500   -1.9179 N   0  0  0  0  0  0  0  0  0  0  0  0
    2.5923   -1.9570   -1.6430 C   0  0  0  0  0  0  0  0  0  0  0  0
    3.3815   -0.6434   -1.8471 C   0  0  0  0  0  0  0  0  0  0  0  0
    2.7499    0.3912   -1.0839 O   0  0  0  0  0  0  0  0  0  0  0  0
    4.8327   -0.7949   -1.4514 C   0  0  0  0  0  0  0  0  0  0  0  0
    5.7772   -1.2179   -2.4001 C   0  0  0  0  0  0  0  0  0  0  0  0
    7.1161   -1.3923   -2.0433 C   0  0  0  0  0  0  0  0  0  0  0  0
    7.5269   -1.1505   -0.7341 C   0  0  0  0  0  0  0  0  0  0  0  0
    6.6003   -0.7341    0.2191 C   0  0  0  0  0  0  0  0  0  0  0  0
    5.2616   -0.5597   -0.1365 C   0  0  0  0  0  0  0  0  0  0  0  0
    0.6623   -2.6226   -1.7286 H   0  0  0  0  0  0  0  0  0  0  0  0
    1.0308   -1.5728   -2.9156 H   0  0  0  0  0  0  0  0  0  0  0  0
    2.9848   -2.7541   -2.2838 H   0  0  0  0  0  0  0  0  0  0  0  0
    2.6817   -2.2882   -0.6017 H   0  0  0  0  0  0  0  0  0  0  0  0
    3.3201   -0.3309   -2.8968 H   0  0  0  0  0  0  0  0  0  0  0  0
    1.7992    0.1584   -1.1113 H   0  0  0  0  0  0  0  0  0  0  0  0
    5.4765   -1.4103   -3.4275 H   0  0  0  0  0  0  0  0  0  0  0  0
    7.8394   -1.7142   -2.7878 H   0  0  0  0  0  0  0  0  0  0  0  0
    8.5693   -1.2825   -0.4571 H   0  0  0  0  0  0  0  0  0  0  0  0
    6.9182   -0.5401    1.2400 H   0  0  0  0  0  0  0  0  0  0  0  0
    4.5491   -0.2285    0.6169 H   0  0  0  0  0  0  0  0  0  0  0  0
  1  2  1  0  0  0  0
  1 11  1  0  0  0  0
  1 12  1  0  0  0  0
  2  3  1  0  0  0  0
  2 13  1  0  0  0  0
  2 14  1  0  0  0  0
  3  4  1  0  0  0  0
  3  5  1  0  0  0  0
  3 15  1  0  0  0  0
  4 16  1  0  0  0  0
  5  6  1  0  0  0  0
  5 10  2  0  0  0  0
  6  7  2  0  0  0  0
  6 17  1  0  0  0  0
  7  8  1  0  0  0  0
  7 18  1  0  0  0  0
  8  9  2  0  0  0  0
  8 19  1  0  0  0  0
  9 10  1  0  0  0  0
  9 20  1  0  0  0  0
 10 21  1  0  0  0  0
M  END
$$$$
