CHEBI:17433
 OpenBabel04242416343D

 35 37  0  0  1  0  0  0  0  0999 V2000
    3.2323    2.4885   -1.2367 N   0  0  0  0  0  0  0  0  0  0  0  0
    2.0278    1.9443   -0.9256 C   0  0  0  0  0  0  0  0  0  0  0  0
    0.9688    2.7034   -0.8656 N   0  0  0  0  0  0  0  0  0  0  0  0
   -0.1573    2.0315   -0.5357 C   0  0  0  0  0  0  0  0  0  0  0  0
   -1.3851    2.6131   -0.4211 N   0  0  0  0  0  0  0  0  0  0  0  0
   -2.3062    1.6575   -0.0616 C   0  0  0  0  0  0  0  0  0  0  0  0
   -1.6611    0.4330    0.0461 C   0  0  0  0  0  0  0  0  0  0  0  0
   -2.2669   -0.8762    0.4393 C   0  0  0  0  0  0  0  0  0  0  0  0
   -2.1145   -1.8104   -0.6734 N   0  0  0  0  0  0  0  0  0  0  0  0
   -2.6824   -3.1193   -0.3454 C   0  0  1  0  0  0  0  0  0  0  0  0
   -2.6995   -3.9436   -1.6041 C   0  0  0  0  0  0  0  0  0  0  0  0
   -1.8144   -4.9478   -1.5789 C   0  0  0  0  0  0  0  0  0  0  0  0
   -1.0374   -4.9585   -0.3055 C   0  0  2  0  0  0  0  0  0  0  0  0
   -0.9925   -6.2714    0.2402 O   0  0  0  0  0  0  0  0  0  0  0  0
   -1.8408   -4.0102    0.6111 C   0  0  2  0  0  0  0  0  0  0  0  0
   -2.7127   -4.7612    1.4793 O   0  0  0  0  0  0  0  0  0  0  0  0
   -0.2963    0.6905   -0.2688 C   0  0  0  0  0  0  0  0  0  0  0  0
    0.8808   -0.1357   -0.3644 C   0  0  0  0  0  0  0  0  0  0  0  0
    0.8858   -1.3531   -0.2031 O   0  0  0  0  0  0  0  0  0  0  0  0
    2.0174    0.5875   -0.6780 N   0  0  0  0  0  0  0  0  0  0  0  0
    3.1957    3.5036   -1.2108 H   0  0  0  0  0  0  0  0  0  0  0  0
    4.0304    2.1216   -0.7360 H   0  0  0  0  0  0  0  0  0  0  0  0
   -1.5692    3.5936   -0.5790 H   0  0  0  0  0  0  0  0  0  0  0  0
   -3.3439    1.9271    0.0846 H   0  0  0  0  0  0  0  0  0  0  0  0
   -3.3284   -0.7344    0.6743 H   0  0  0  0  0  0  0  0  0  0  0  0
   -1.7668   -1.2371    1.3451 H   0  0  0  0  0  0  0  0  0  0  0  0
   -1.1133   -1.9221   -0.8523 H   0  0  0  0  0  0  0  0  0  0  0  0
   -3.7131   -3.0170    0.0164 H   0  0  0  0  0  0  0  0  0  0  0  0
   -3.3443   -3.7121   -2.4410 H   0  0  0  0  0  0  0  0  0  0  0  0
   -1.6355   -5.6316   -2.3962 H   0  0  0  0  0  0  0  0  0  0  0  0
   -0.0198   -4.5931   -0.4768 H   0  0  0  0  0  0  0  0  0  0  0  0
   -1.8699   -6.6634    0.0746 H   0  0  0  0  0  0  0  0  0  0  0  0
   -1.1764   -3.4348    1.2630 H   0  0  0  0  0  0  0  0  0  0  0  0
   -2.1429   -5.4536    1.8666 H   0  0  0  0  0  0  0  0  0  0  0  0
    2.8568    0.0500   -0.8069 H   0  0  0  0  0  0  0  0  0  0  0  0
  1  2  1  0  0  0  0
  1 21  1  0  0  0  0
  1 22  1  0  0  0  0
  2  3  2  0  0  0  0
  2 20  1  0  0  0  0
  3  4  1  0  0  0  0
  4  5  1  0  0  0  0
  4 17  2  0  0  0  0
  5  6  1  0  0  0  0
  5 23  1  0  0  0  0
  6  7  2  0  0  0  0
  6 24  1  0  0  0  0
  7  8  1  0  0  0  0
  7 17  1  0  0  0  0
  8  9  1  0  0  0  0
  8 25  1  0  0  0  0
  8 26  1  0  0  0  0
  9 10  1  0  0  0  0
  9 27  1  0  0  0  0
 10 11  1  0  0  0  0
 10 15  1  0  0  0  0
 10 28  1  1  0  0  0
 11 12  2  0  0  0  0
 11 29  1  0  0  0  0
 12 13  1  0  0  0  0
 12 30  1  0  0  0  0
 13 14  1  0  0  0  0
 13 15  1  0  0  0  0
 13 31  1  6  0  0  0
 14 32  1  0  0  0  0
 15 16  1  0  0  0  0
 15 33  1  1  0  0  0
 16 34  1  0  0  0  0
 17 18  1  0  0  0  0
 18 19  2  0  0  0  0
 18 20  1  0  0  0  0
 20 35  1  0  0  0  0
M  END
$$$$
