CHEBI:7896
 OpenBabel04242411113D

 49 48  0  0  0  0  0  0  0  0999 V2000
    7.7892   -6.4706   -5.7656 C   0  0  0  0  0  0  0  0  0  0  0  0
    6.2994   -6.1665   -5.7746 C   0  0  0  0  0  0  0  0  0  0  0  0
    5.9533   -4.8032   -6.3836 C   0  0  0  0  0  0  0  0  0  0  0  0
    6.5870   -3.5856   -5.6970 C   0  0  0  0  0  0  0  0  0  0  0  0
    6.2971   -3.5419   -4.1971 C   0  0  0  0  0  0  0  0  0  0  0  0
    6.8775   -2.3069   -3.5162 C   0  0  0  0  0  0  0  0  0  0  0  0
    6.4867   -2.1883   -2.0359 C   0  0  0  0  0  0  0  0  0  0  0  0
    6.9875   -3.3266   -1.1350 C   0  0  0  0  0  0  0  0  0  0  0  0
    5.9835   -4.4746   -0.9685 C   0  0  0  0  0  0  0  0  0  0  0  0
    6.5287   -5.5629   -0.0377 C   0  0  0  0  0  0  0  0  0  0  0  0
    5.5532   -6.7369    0.0767 C   0  0  0  0  0  0  0  0  0  0  0  0
    6.0684   -7.8128    1.0384 C   0  0  0  0  0  0  0  0  0  0  0  0
    5.0690   -8.9672    1.1521 C   0  0  0  0  0  0  0  0  0  0  0  0
    5.4576  -10.0286    2.1879 C   0  0  0  0  0  0  0  0  0  0  0  0
    6.7504  -10.7851    1.8954 C   0  0  0  0  0  0  0  0  0  0  0  0
    6.7803  -11.6964    0.6639 C   0  0  0  0  0  0  0  0  0  0  0  0
    7.9367  -12.1059    0.3523 O   0  0  0  0  0  0  0  0  0  0  0  0
    5.6712  -11.9473    0.1199 O   0  5  0  0  0  0  0  0  0  0  0  0
    8.1945   -6.4647   -6.7820 H   0  0  0  0  0  0  0  0  0  0  0  0
    7.9668   -7.4613   -5.3348 H   0  0  0  0  0  0  0  0  0  0  0  0
    8.3484   -5.7463   -5.1662 H   0  0  0  0  0  0  0  0  0  0  0  0
    5.9058   -6.2380   -4.7543 H   0  0  0  0  0  0  0  0  0  0  0  0
    5.7861   -6.9455   -6.3508 H   0  0  0  0  0  0  0  0  0  0  0  0
    4.8621   -4.6882   -6.3634 H   0  0  0  0  0  0  0  0  0  0  0  0
    6.2440   -4.7985   -7.4412 H   0  0  0  0  0  0  0  0  0  0  0  0
    6.1966   -2.6777   -6.1733 H   0  0  0  0  0  0  0  0  0  0  0  0
    7.6699   -3.5836   -5.8672 H   0  0  0  0  0  0  0  0  0  0  0  0
    6.7422   -4.4261   -3.7350 H   0  0  0  0  0  0  0  0  0  0  0  0
    5.2138   -3.5795   -4.0330 H   0  0  0  0  0  0  0  0  0  0  0  0
    6.5305   -1.4059   -4.0371 H   0  0  0  0  0  0  0  0  0  0  0  0
    7.9710   -2.3182   -3.6047 H   0  0  0  0  0  0  0  0  0  0  0  0
    5.4000   -2.0755   -1.9435 H   0  0  0  0  0  0  0  0  0  0  0  0
    6.9251   -1.2521   -1.6663 H   0  0  0  0  0  0  0  0  0  0  0  0
    7.1794   -2.9068   -0.1392 H   0  0  0  0  0  0  0  0  0  0  0  0
    7.9476   -3.7072   -1.5030 H   0  0  0  0  0  0  0  0  0  0  0  0
    5.7404   -4.9259   -1.9335 H   0  0  0  0  0  0  0  0  0  0  0  0
    5.0443   -4.0821   -0.5602 H   0  0  0  0  0  0  0  0  0  0  0  0
    6.7106   -5.1357    0.9557 H   0  0  0  0  0  0  0  0  0  0  0  0
    7.4917   -5.9252   -0.4175 H   0  0  0  0  0  0  0  0  0  0  0  0
    5.3964   -7.1798   -0.9148 H   0  0  0  0  0  0  0  0  0  0  0  0
    4.5794   -6.3708    0.4237 H   0  0  0  0  0  0  0  0  0  0  0  0
    6.2353   -7.3714    2.0281 H   0  0  0  0  0  0  0  0  0  0  0  0
    7.0341   -8.1843    0.6783 H   0  0  0  0  0  0  0  0  0  0  0  0
    4.9304   -9.4296    0.1687 H   0  0  0  0  0  0  0  0  0  0  0  0
    4.0916   -8.5610    1.4423 H   0  0  0  0  0  0  0  0  0  0  0  0
    4.6318  -10.7459    2.2735 H   0  0  0  0  0  0  0  0  0  0  0  0
    5.5491   -9.5476    3.1698 H   0  0  0  0  0  0  0  0  0  0  0  0
    6.9577  -11.4377    2.7542 H   0  0  0  0  0  0  0  0  0  0  0  0
    7.5909  -10.0846    1.8349 H   0  0  0  0  0  0  0  0  0  0  0  0
  1  2  1  0  0  0  0
  1 19  1  0  0  0  0
  1 20  1  0  0  0  0
  1 21  1  0  0  0  0
  2  3  1  0  0  0  0
  2 22  1  0  0  0  0
  2 23  1  0  0  0  0
  3  4  1  0  0  0  0
  3 24  1  0  0  0  0
  3 25  1  0  0  0  0
  4  5  1  0  0  0  0
  4 26  1  0  0  0  0
  4 27  1  0  0  0  0
  5  6  1  0  0  0  0
  5 28  1  0  0  0  0
  5 29  1  0  0  0  0
  6  7  1  0  0  0  0
  6 30  1  0  0  0  0
  6 31  1  0  0  0  0
  7  8  1  0  0  0  0
  7 32  1  0  0  0  0
  7 33  1  0  0  0  0
  8  9  1  0  0  0  0
  8 34  1  0  0  0  0
  8 35  1  0  0  0  0
  9 10  1  0  0  0  0
  9 36  1  0  0  0  0
  9 37  1  0  0  0  0
 10 11  1  0  0  0  0
 10 38  1  0  0  0  0
 10 39  1  0  0  0  0
 11 12  1  0  0  0  0
 11 40  1  0  0  0  0
 11 41  1  0  0  0  0
 12 13  1  0  0  0  0
 12 42  1  0  0  0  0
 12 43  1  0  0  0  0
 13 14  1  0  0  0  0
 13 44  1  0  0  0  0
 13 45  1  0  0  0  0
 14 15  1  0  0  0  0
 14 46  1  0  0  0  0
 14 47  1  0  0  0  0
 15 16  1  0  0  0  0
 15 48  1  0  0  0  0
 15 49  1  0  0  0  0
 16 17  2  0  0  0  0
 16 18  1  0  0  0  0
M  CHG  1  18  -1
M  END
$$$$
