CHEBI:17680
 OpenBabel04242417053D

 34 33  0  0  1  0  0  0  0  0999 V2000
    7.4523    2.2474   -1.1090 O   0  0  0  0  0  0  0  0  0  0  0  0
    7.1667    1.3755   -0.2870 C   0  0  0  0  0  0  0  0  0  0  0  0
    7.3957   -0.0947   -0.5786 C   0  0  2  0  0  0  0  0  0  0  0  0
    6.6131   -0.4134   -1.7178 O   0  0  0  0  0  0  0  0  0  0  0  0
    7.2573   -0.1329   -3.1579 P   0  0  0  0  0  0  0  0  0  0  0  0
    8.6636   -0.6019   -3.3365 O   0  0  0  0  0  0  0  0  0  0  0  0
    6.2057   -0.8471   -4.1226 O   0  0  0  0  0  0  0  0  0  0  0  0
    6.9438    1.3982   -3.4501 O   0  0  0  0  0  0  0  0  0  0  0  0
    7.0205   -0.9827    0.6094 C   0  0  1  0  0  0  0  0  0  0  0  0
    7.6037   -0.4322    1.8079 O   0  0  0  0  0  0  0  0  0  0  0  0
    7.5551   -2.4299    0.4833 C   0  0  2  0  0  0  0  0  0  0  0  0
    7.2368   -3.0776    1.7380 O   0  0  0  0  0  0  0  0  0  0  0  0
    6.9627   -3.2567   -0.6721 C   0  0  2  0  0  0  0  0  0  0  0  0
    5.5733   -3.4716   -0.3938 O   0  0  0  0  0  0  0  0  0  0  0  0
    7.6790   -4.6037   -0.8380 C   0  0  0  0  0  0  0  0  0  0  0  0
    9.0564   -4.4130   -1.1139 O   0  0  0  0  0  0  0  0  0  0  0  0
    9.5706   -4.3783   -2.6263 P   0  0  0  0  0  0  0  0  0  0  0  0
   11.0362   -4.2033   -2.8167 O   0  0  0  0  0  0  0  0  0  0  0  0
    9.0339   -5.7260   -3.2916 O   0  0  0  0  0  0  0  0  0  0  0  0
    8.7023   -3.2611   -3.3570 O   0  0  0  0  0  0  0  0  0  0  0  0
    6.6745    1.6311    0.6675 H   0  0  0  0  0  0  0  0  0  0  0  0
    8.4667   -0.2061   -0.7876 H   0  0  0  0  0  0  0  0  0  0  0  0
    6.4443   -0.7225   -5.0584 H   0  0  0  0  0  0  0  0  0  0  0  0
    7.3080    2.0038   -2.7607 H   0  0  0  0  0  0  0  0  0  0  0  0
    5.9353   -0.9950    0.7639 H   0  0  0  0  0  0  0  0  0  0  0  0
    7.6180   -1.1767    2.4498 H   0  0  0  0  0  0  0  0  0  0  0  0
    8.6491   -2.3962    0.4221 H   0  0  0  0  0  0  0  0  0  0  0  0
    6.3268   -3.4248    1.6217 H   0  0  0  0  0  0  0  0  0  0  0  0
    7.0447   -2.7081   -1.6086 H   0  0  0  0  0  0  0  0  0  0  0  0
    5.1564   -3.7470   -1.2327 H   0  0  0  0  0  0  0  0  0  0  0  0
    7.1962   -5.1925   -1.6261 H   0  0  0  0  0  0  0  0  0  0  0  0
    7.5903   -5.2007    0.0767 H   0  0  0  0  0  0  0  0  0  0  0  0
    9.6414   -6.0119   -3.9981 H   0  0  0  0  0  0  0  0  0  0  0  0
    9.1371   -2.3742   -3.3702 H   0  0  0  0  0  0  0  0  0  0  0  0
  1  2  2  0  0  0  0
  2 21  1  0  0  0  0
  3  9  1  0  0  0  0
  3  4  1  0  0  0  0
  3  2  1  0  0  0  0
  3 22  1  6  0  0  0
  4  5  1  0  0  0  0
  5  6  2  0  0  0  0
  5  7  1  0  0  0  0
  5  8  1  0  0  0  0
  7 23  1  0  0  0  0
  8 24  1  0  0  0  0
  9 10  1  0  0  0  0
  9 25  1  6  0  0  0
 10 26  1  0  0  0  0
 11 12  1  0  0  0  0
 11  9  1  0  0  0  0
 11 27  1  1  0  0  0
 12 28  1  0  0  0  0
 13 15  1  0  0  0  0
 13 14  1  0  0  0  0
 13 11  1  0  0  0  0
 13 29  1  6  0  0  0
 14 30  1  0  0  0  0
 15 16  1  0  0  0  0
 15 31  1  0  0  0  0
 15 32  1  0  0  0  0
 16 17  1  0  0  0  0
 17 18  2  0  0  0  0
 17 19  1  0  0  0  0
 17 20  1  0  0  0  0
 19 33  1  0  0  0  0
 20 34  1  0  0  0  0
M  END
$$$$
