CHEBI:15515
 OpenBabel04242412293D

 96 99  0  0  1  0  0  0  0  0999 V2000
   11.2076  -13.7248    0.4085 C   0  0  0  0  0  0  0  0  0  0  0  0
    9.7313  -13.3237    0.6194 C   0  0  0  0  0  0  0  0  0  0  0  0
    8.9284  -14.6209    0.8787 C   0  0  0  0  0  0  0  0  0  0  0  0
    9.6347  -12.4234    1.8769 C   0  0  0  0  0  0  0  0  0  0  0  0
    8.2856  -12.1092    2.1922 O   0  0  0  0  0  0  0  0  0  0  0  0
    8.0359  -11.0085    3.3370 P   0  0  0  0  0  0  0  0  0  0  0  0
    8.6078   -9.6655    3.0166 O   0  0  0  0  0  0  0  0  0  0  0  0
    6.4434  -10.9251    3.4006 O   0  0  0  0  0  0  0  0  0  0  0  0
    8.4950  -11.5966    4.7293 O   0  0  0  0  0  0  0  0  0  0  0  0
    7.8295  -12.7179    5.6213 P   0  0  0  0  0  0  0  0  0  0  0  0
    6.3635  -12.6175    5.8746 O   0  0  0  0  0  0  0  0  0  0  0  0
    8.2212  -14.0966    4.9047 O   0  0  0  0  0  0  0  0  0  0  0  0
    8.7071  -12.7574    6.9678 O   0  0  0  0  0  0  0  0  0  0  0  0
   10.1229  -12.8574    6.8785 C   0  0  0  0  0  0  0  0  0  0  0  0
   10.7147  -12.9663    8.2849 C   0  0  1  0  0  0  0  0  0  0  0  0
   10.3386  -14.2352    8.8739 O   0  0  0  0  0  0  0  0  0  0  0  0
   11.4223  -14.6636    9.7267 C   0  0  1  0  0  0  0  0  0  0  0  0
   11.8023  -16.0187    9.3670 N   0  0  0  0  0  0  0  0  0  0  0  0
   11.7984  -17.0892   10.2267 C   0  0  0  0  0  0  0  0  0  0  0  0
   12.2372  -18.1898    9.6517 N   0  0  0  0  0  0  0  0  0  0  0  0
   12.5371  -17.8163    8.3583 C   0  0  0  0  0  0  0  0  0  0  0  0
   13.0461  -18.5258    7.2560 C   0  0  0  0  0  0  0  0  0  0  0  0
   13.3651  -19.8774    7.2951 N   0  0  0  0  0  0  0  0  0  0  0  0
   13.2226  -17.8706    6.0865 N   0  0  0  0  0  0  0  0  0  0  0  0
   12.9167  -16.5597    6.0373 C   0  0  0  0  0  0  0  0  0  0  0  0
   12.4300  -15.7825    7.0215 N   0  0  0  0  0  0  0  0  0  0  0  0
   12.2614  -16.4732    8.1591 C   0  0  0  0  0  0  0  0  0  0  0  0
   12.5543  -13.6305    9.6127 C   0  0  2  0  0  0  0  0  0  0  0  0
   12.4640  -12.6941   10.7000 O   0  0  0  0  0  0  0  0  0  0  0  0
   12.2387  -12.9481    8.2858 C   0  0  2  0  0  0  0  0  0  0  0  0
   12.8093  -11.6628    8.1085 O   0  0  0  0  0  0  0  0  0  0  0  0
   14.3951  -11.5513    8.3074 P   0  0  0  0  0  0  0  0  0  0  0  0
   14.8296  -11.3920    9.7232 O   0  0  0  0  0  0  0  0  0  0  0  0
   15.0095  -12.8429    7.6034 O   0  0  0  0  0  0  0  0  0  0  0  0
   14.8594  -10.3822    7.3352 O   0  0  0  0  0  0  0  0  0  0  0  0
    9.1765  -12.6566   -0.6798 C   0  0  1  0  0  0  0  0  0  0  0  0
    7.7940  -12.3292   -0.5769 O   0  0  0  0  0  0  0  0  0  0  0  0
    9.9875  -11.4355   -1.1813 C   0  0  0  0  0  0  0  0  0  0  0  0
   10.7312  -10.7681   -0.4687 O   0  0  0  0  0  0  0  0  0  0  0  0
    9.8342  -11.1852   -2.5309 N   0  0  0  0  0  0  0  0  0  0  0  0
   10.6970  -10.2658   -3.2498 C   0  0  0  0  0  0  0  0  0  0  0  0
   10.4114   -8.7934   -2.9890 C   0  0  0  0  0  0  0  0  0  0  0  0
    9.2920   -8.2410   -3.8455 C   0  0  0  0  0  0  0  0  0  0  0  0
    8.6705   -8.8934   -4.6746 O   0  0  0  0  0  0  0  0  0  0  0  0
    9.0636   -6.9012   -3.6047 N   0  0  0  0  0  0  0  0  0  0  0  0
    8.1082   -6.1371   -4.3862 C   0  0  0  0  0  0  0  0  0  0  0  0
    7.9783   -4.6919   -3.9043 C   0  0  0  0  0  0  0  0  0  0  0  0
    9.5354   -3.7747   -4.1691 S   0  0  0  0  0  0  0  0  0  0  0  0
    9.0878   -2.2600   -3.3941 C   0  0  0  0  0  0  0  0  0  0  0  0
    8.4393   -2.2605   -2.3528 O   0  0  0  0  0  0  0  0  0  0  0  0
    9.5498   -0.9836   -4.0089 C   0  0  0  0  0  0  0  0  0  0  0  0
    9.5789    0.1612   -3.1972 C   0  0  0  0  0  0  0  0  0  0  0  0
    9.9770    1.3930   -3.7213 C   0  0  0  0  0  0  0  0  0  0  0  0
   10.3406    1.4941   -5.0624 C   0  0  0  0  0  0  0  0  0  0  0  0
   10.3086    0.3656   -5.8800 C   0  0  0  0  0  0  0  0  0  0  0  0
    9.9153   -0.8703   -5.3581 C   0  0  0  0  0  0  0  0  0  0  0  0
   11.5801  -14.3180    1.2509 H   0  0  0  0  0  0  0  0  0  0  0  0
   11.8622  -12.8525    0.3182 H   0  0  0  0  0  0  0  0  0  0  0  0
   11.3271  -14.3261   -0.5000 H   0  0  0  0  0  0  0  0  0  0  0  0
    9.2927  -15.1359    1.7751 H   0  0  0  0  0  0  0  0  0  0  0  0
    9.0260  -15.3172    0.0375 H   0  0  0  0  0  0  0  0  0  0  0  0
    7.8611  -14.4231    1.0218 H   0  0  0  0  0  0  0  0  0  0  0  0
   10.1991  -11.4960    1.7513 H   0  0  0  0  0  0  0  0  0  0  0  0
   10.0657  -12.9445    2.7404 H   0  0  0  0  0  0  0  0  0  0  0  0
    6.1354  -10.0215    3.2015 H   0  0  0  0  0  0  0  0  0  0  0  0
    7.5947  -14.7926    5.1847 H   0  0  0  0  0  0  0  0  0  0  0  0
   10.5085  -11.9679    6.3719 H   0  0  0  0  0  0  0  0  0  0  0  0
   10.3730  -13.7474    6.2927 H   0  0  0  0  0  0  0  0  0  0  0  0
   10.3025  -12.1721    8.9204 H   0  0  0  0  0  0  0  0  0  0  0  0
   11.0298  -14.6981   10.7504 H   0  0  0  0  0  0  0  0  0  0  0  0
   11.4709  -17.0113   11.2566 H   0  0  0  0  0  0  0  0  0  0  0  0
   12.8860  -20.3767    8.0362 H   0  0  0  0  0  0  0  0  0  0  0  0
   13.3512  -20.2883    6.3706 H   0  0  0  0  0  0  0  0  0  0  0  0
   13.0869  -16.0681    5.0836 H   0  0  0  0  0  0  0  0  0  0  0  0
   13.5527  -14.0764    9.6552 H   0  0  0  0  0  0  0  0  0  0  0  0
   13.2519  -12.1102   10.6652 H   0  0  0  0  0  0  0  0  0  0  0  0
   12.5970  -13.5545    7.4563 H   0  0  0  0  0  0  0  0  0  0  0  0
   15.9624  -12.9367    7.7864 H   0  0  0  0  0  0  0  0  0  0  0  0
   14.8767   -9.5146    7.7778 H   0  0  0  0  0  0  0  0  0  0  0  0
    9.2418  -13.4035   -1.4834 H   0  0  0  0  0  0  0  0  0  0  0  0
    7.6702  -11.8800    0.2810 H   0  0  0  0  0  0  0  0  0  0  0  0
    9.0988  -11.6652   -3.0403 H   0  0  0  0  0  0  0  0  0  0  0  0
   10.6284  -10.5154   -4.3138 H   0  0  0  0  0  0  0  0  0  0  0  0
   11.7236  -10.4831   -2.9299 H   0  0  0  0  0  0  0  0  0  0  0  0
   11.3116   -8.2190   -3.2425 H   0  0  0  0  0  0  0  0  0  0  0  0
   10.1752   -8.6079   -1.9361 H   0  0  0  0  0  0  0  0  0  0  0  0
    9.7324   -6.3897   -3.0398 H   0  0  0  0  0  0  0  0  0  0  0  0
    7.1386   -6.6418   -4.3054 H   0  0  0  0  0  0  0  0  0  0  0  0
    8.4089   -6.1831   -5.4398 H   0  0  0  0  0  0  0  0  0  0  0  0
    7.7239   -4.6812   -2.8393 H   0  0  0  0  0  0  0  0  0  0  0  0
    7.1804   -4.1867   -4.4578 H   0  0  0  0  0  0  0  0  0  0  0  0
    9.2915    0.0986   -2.1486 H   0  0  0  0  0  0  0  0  0  0  0  0
    9.9986    2.2735   -3.0833 H   0  0  0  0  0  0  0  0  0  0  0  0
   10.6446    2.4543   -5.4725 H   0  0  0  0  0  0  0  0  0  0  0  0
   10.5849    0.4485   -6.9287 H   0  0  0  0  0  0  0  0  0  0  0  0
    9.8869   -1.7240   -6.0294 H   0  0  0  0  0  0  0  0  0  0  0  0
  1  2  1  0  0  0  0
  1 57  1  0  0  0  0
  1 58  1  0  0  0  0
  1 59  1  0  0  0  0
  2  3  1  0  0  0  0
  2  4  1  0  0  0  0
  2 36  1  0  0  0  0
  3 60  1  0  0  0  0
  3 61  1  0  0  0  0
  3 62  1  0  0  0  0
  4  5  1  0  0  0  0
  4 63  1  0  0  0  0
  4 64  1  0  0  0  0
  5  6  1  0  0  0  0
  6  7  2  0  0  0  0
  6  8  1  0  0  0  0
  6  9  1  0  0  0  0
  8 65  1  0  0  0  0
  9 10  1  0  0  0  0
 10 11  2  0  0  0  0
 10 12  1  0  0  0  0
 10 13  1  0  0  0  0
 12 66  1  0  0  0  0
 13 14  1  0  0  0  0
 14 67  1  0  0  0  0
 14 68  1  0  0  0  0
 15 16  1  0  0  0  0
 15 30  1  0  0  0  0
 15 14  1  0  0  0  0
 15 69  1  1  0  0  0
 16 17  1  0  0  0  0
 17 28  1  0  0  0  0
 17 18  1  0  0  0  0
 17 70  1  1  0  0  0
 18 19  1  0  0  0  0
 18 27  1  0  0  0  0
 19 20  2  0  0  0  0
 19 71  1  0  0  0  0
 20 21  1  0  0  0  0
 21 22  1  0  0  0  0
 21 27  2  0  0  0  0
 22 23  1  0  0  0  0
 22 24  2  0  0  0  0
 23 72  1  0  0  0  0
 23 73  1  0  0  0  0
 24 25  1  0  0  0  0
 25 26  2  0  0  0  0
 25 74  1  0  0  0  0
 26 27  1  0  0  0  0
 28 29  1  0  0  0  0
 28 30  1  0  0  0  0
 28 75  1  6  0  0  0
 29 76  1  0  0  0  0
 30 31  1  0  0  0  0
 30 77  1  6  0  0  0
 31 32  1  0  0  0  0
 32 33  2  0  0  0  0
 32 34  1  0  0  0  0
 32 35  1  0  0  0  0
 34 78  1  0  0  0  0
 35 79  1  0  0  0  0
 36 37  1  0  0  0  0
 36 38  1  0  0  0  0
 36 80  1  6  0  0  0
 37 81  1  0  0  0  0
 38 39  2  0  0  0  0
 38 40  1  0  0  0  0
 40 41  1  0  0  0  0
 40 82  1  0  0  0  0
 41 42  1  0  0  0  0
 41 83  1  0  0  0  0
 41 84  1  0  0  0  0
 42 43  1  0  0  0  0
 42 85  1  0  0  0  0
 42 86  1  0  0  0  0
 43 44  2  0  0  0  0
 43 45  1  0  0  0  0
 45 46  1  0  0  0  0
 45 87  1  0  0  0  0
 46 47  1  0  0  0  0
 46 88  1  0  0  0  0
 46 89  1  0  0  0  0
 47 48  1  0  0  0  0
 47 90  1  0  0  0  0
 47 91  1  0  0  0  0
 48 49  1  0  0  0  0
 49 50  2  0  0  0  0
 49 51  1  0  0  0  0
 51 52  1  0  0  0  0
 51 56  2  0  0  0  0
 52 53  2  0  0  0  0
 52 92  1  0  0  0  0
 53 54  1  0  0  0  0
 53 93  1  0  0  0  0
 54 55  2  0  0  0  0
 54 94  1  0  0  0  0
 55 56  1  0  0  0  0
 55 95  1  0  0  0  0
 56 96  1  0  0  0  0
M  END
$$$$
