CHEBI:17335
 OpenBabel04242416203D

 41 42  0  0  1  0  0  0  0  0999 V2000
   11.7876  -11.0525    7.3602 O   0  0  0  0  0  0  0  0  0  0  0  0
   11.5125   -9.9025    7.6581 C   0  0  0  0  0  0  0  0  0  0  0  0
   11.7655   -9.3674    8.8669 O   0  0  0  0  0  0  0  0  0  0  0  0
   10.9307   -8.9596    6.6862 C   0  0  0  0  0  0  0  0  0  0  0  0
   10.0755   -7.9768    7.0129 C   0  0  0  0  0  0  0  0  0  0  0  0
    9.4649   -7.0501    6.0443 C   0  0  0  0  0  0  0  0  0  0  0  0
    8.2476   -6.4347    6.3699 C   0  0  0  0  0  0  0  0  0  0  0  0
    7.6445   -5.5170    5.4987 C   0  0  0  0  0  0  0  0  0  0  0  0
    8.2609   -5.1907    4.2942 C   0  0  0  0  0  0  0  0  0  0  0  0
    7.7763   -4.3224    3.3594 O   0  0  0  0  0  0  0  0  0  0  0  0
    6.8895   -3.2891    3.8172 C   0  0  2  0  0  0  0  0  0  0  0  0
    5.5408   -3.7606    3.8915 O   0  0  0  0  0  0  0  0  0  0  0  0
    4.6218   -2.7334    4.2880 C   0  0  2  0  0  0  0  0  0  0  0  0
    3.2234   -3.3433    4.4578 C   0  0  0  0  0  0  0  0  0  0  0  0
    2.3110   -2.4233    5.0477 O   0  0  0  0  0  0  0  0  0  0  0  0
    4.6076   -1.6034    3.2455 C   0  0  1  0  0  0  0  0  0  0  0  0
    3.7116   -0.5527    3.6236 O   0  0  0  0  0  0  0  0  0  0  0  0
    6.0201   -1.0408    3.0954 C   0  0  2  0  0  0  0  0  0  0  0  0
    6.0208   -0.0546    2.0518 O   0  0  0  0  0  0  0  0  0  0  0  0
    7.0081   -2.1580    2.7735 C   0  0  1  0  0  0  0  0  0  0  0  0
    8.3311   -1.5964    2.7414 O   0  0  0  0  0  0  0  0  0  0  0  0
    9.4664   -5.8061    3.9568 C   0  0  0  0  0  0  0  0  0  0  0  0
   10.0723   -6.7164    4.8284 C   0  0  0  0  0  0  0  0  0  0  0  0
   11.6676   -8.3991    8.9037 H   0  0  0  0  0  0  0  0  0  0  0  0
   11.1942   -9.1855    5.6584 H   0  0  0  0  0  0  0  0  0  0  0  0
    9.7496   -7.8479    8.0426 H   0  0  0  0  0  0  0  0  0  0  0  0
    7.7392   -6.6744    7.3023 H   0  0  0  0  0  0  0  0  0  0  0  0
    6.6838   -5.0953    5.7786 H   0  0  0  0  0  0  0  0  0  0  0  0
    7.2242   -2.9162    4.7958 H   0  0  0  0  0  0  0  0  0  0  0  0
    4.9260   -2.3288    5.2633 H   0  0  0  0  0  0  0  0  0  0  0  0
    2.8190   -3.6742    3.4948 H   0  0  0  0  0  0  0  0  0  0  0  0
    3.2733   -4.2288    5.1003 H   0  0  0  0  0  0  0  0  0  0  0  0
    2.4383   -1.5627    4.5924 H   0  0  0  0  0  0  0  0  0  0  0  0
    4.2643   -1.9845    2.2752 H   0  0  0  0  0  0  0  0  0  0  0  0
    3.9229    0.1888    3.0166 H   0  0  0  0  0  0  0  0  0  0  0  0
    6.3194   -0.5075    4.0064 H   0  0  0  0  0  0  0  0  0  0  0  0
    6.9654    0.1444    1.8873 H   0  0  0  0  0  0  0  0  0  0  0  0
    6.8132   -2.5457    1.7656 H   0  0  0  0  0  0  0  0  0  0  0  0
    8.9392   -2.3504    2.6098 H   0  0  0  0  0  0  0  0  0  0  0  0
    9.9478   -5.5720    3.0104 H   0  0  0  0  0  0  0  0  0  0  0  0
   11.0248   -7.1497    4.5347 H   0  0  0  0  0  0  0  0  0  0  0  0
  1  2  2  0  0  0  0
  2  3  1  0  0  0  0
  2  4  1  0  0  0  0
  3 24  1  0  0  0  0
  4  5  2  0  0  0  0
  4 25  1  0  0  0  0
  5  6  1  0  0  0  0
  5 26  1  0  0  0  0
  6  7  1  0  0  0  0
  6 23  2  0  0  0  0
  7  8  2  0  0  0  0
  7 27  1  0  0  0  0
  8  9  1  0  0  0  0
  8 28  1  0  0  0  0
  9 10  1  0  0  0  0
  9 22  2  0  0  0  0
 11 12  1  0  0  0  0
 11 20  1  0  0  0  0
 11 10  1  0  0  0  0
 11 29  1  1  0  0  0
 12 13  1  0  0  0  0
 13 16  1  0  0  0  0
 13 14  1  0  0  0  0
 13 30  1  1  0  0  0
 14 15  1  0  0  0  0
 14 31  1  0  0  0  0
 14 32  1  0  0  0  0
 15 33  1  0  0  0  0
 16 17  1  0  0  0  0
 16 18  1  0  0  0  0
 16 34  1  6  0  0  0
 17 35  1  0  0  0  0
 18 19  1  0  0  0  0
 18 20  1  0  0  0  0
 18 36  1  1  0  0  0
 19 37  1  0  0  0  0
 20 21  1  0  0  0  0
 20 38  1  6  0  0  0
 21 39  1  0  0  0  0
 22 23  1  0  0  0  0
 22 40  1  0  0  0  0
 23 41  1  0  0  0  0
M  END
$$$$
