CHEBI:16558
 OpenBabel04242414453D

 18 17  0  0  0  0  0  0  0  0999 V2000
    0.3558   -0.2787   -1.0804 C   0  0  0  0  0  0  0  0  0  0  0  0
    1.4376    0.6679   -0.6350 C   0  0  0  0  0  0  0  0  0  0  0  0
    1.2091    1.8675   -0.4524 O   0  0  0  0  0  0  0  0  0  0  0  0
    2.8294    0.1053   -0.5009 C   0  0  0  0  0  0  0  0  0  0  0  0
    3.6576    0.7910    0.5595 C   0  0  0  0  0  0  0  0  0  0  0  0
    4.0198    0.1602    1.5574 O   0  0  0  0  0  0  0  0  0  0  0  0
    3.9512    2.2643    0.4425 C   0  0  0  0  0  0  0  0  0  0  0  0
    4.1781    2.7378   -0.9591 C   0  0  0  0  0  0  0  0  0  0  0  0
    5.2397    2.6085   -1.5506 O   0  0  0  0  0  0  0  0  0  0  0  0
    3.0849    3.2590   -1.5564 O   0  0  0  0  0  0  0  0  0  0  0  0
   -0.5997    0.2508   -1.1302 H   0  0  0  0  0  0  0  0  0  0  0  0
    0.2656   -1.0967   -0.3613 H   0  0  0  0  0  0  0  0  0  0  0  0
    0.5979   -0.6709   -2.0711 H   0  0  0  0  0  0  0  0  0  0  0  0
    3.3390    0.1599   -1.4670 H   0  0  0  0  0  0  0  0  0  0  0  0
    2.7541   -0.9539   -0.2291 H   0  0  0  0  0  0  0  0  0  0  0  0
    4.8640    2.4850    1.0087 H   0  0  0  0  0  0  0  0  0  0  0  0
    3.1504    2.8388    0.9179 H   0  0  0  0  0  0  0  0  0  0  0  0
    2.2477    3.1648   -1.0379 H   0  0  0  0  0  0  0  0  0  0  0  0
  1  2  1  0  0  0  0
  1 11  1  0  0  0  0
  1 12  1  0  0  0  0
  1 13  1  0  0  0  0
  2  3  2  0  0  0  0
  2  4  1  0  0  0  0
  4  5  1  0  0  0  0
  4 14  1  0  0  0  0
  4 15  1  0  0  0  0
  5  6  2  0  0  0  0
  5  7  1  0  0  0  0
  7  8  1  0  0  0  0
  7 16  1  0  0  0  0
  7 17  1  0  0  0  0
  8  9  2  0  0  0  0
  8 10  1  0  0  0  0
 10 18  1  0  0  0  0
M  END
$$$$
