CHEBI:16962
 OpenBabel04242415363D

 54 57  0  0  1  0  0  0  0  0999 V2000
    1.3839    0.8214    0.4954 C   0  0  0  0  0  0  0  0  0  0  0  0
    2.8602    0.3798    0.6672 C   0  0  2  0  0  0  0  0  0  0  0  0
    3.1710    0.4892    2.1913 C   0  0  0  0  0  0  0  0  0  0  0  0
    4.6498    0.6007    2.5220 C   0  0  0  0  0  0  0  0  0  0  0  0
    5.2379    1.7862    1.8048 C   0  0  0  0  0  0  0  0  0  0  0  0
    6.1244    2.4832    2.2895 O   0  0  0  0  0  0  0  0  0  0  0  0
    4.8070    2.0146    0.4073 C   0  0  0  0  0  0  0  0  0  0  0  0
    3.7764    1.3331   -0.1237 C   0  0  0  0  0  0  0  0  0  0  0  0
    3.5547    1.3663   -1.6160 C   0  0  0  0  0  0  0  0  0  0  0  0
    3.7880   -0.0347   -2.1820 C   0  0  0  0  0  0  0  0  0  0  0  0
    2.9286   -1.0972   -1.4737 C   0  0  2  0  0  0  0  0  0  0  0  0
    3.1174   -1.0497    0.0814 C   0  0  2  0  0  0  0  0  0  0  0  0
    2.3034   -2.1958    0.7111 C   0  0  0  0  0  0  0  0  0  0  0  0
    1.5161   -2.0427    1.6425 O   0  0  0  0  0  0  0  0  0  0  0  0
    2.5614   -3.5934    0.1601 C   0  0  0  0  0  0  0  0  0  0  0  0
    2.3283   -3.6024   -1.3561 C   0  0  1  0  0  0  0  0  0  0  0  0
    0.8204   -3.3568   -1.6381 C   0  0  0  0  0  0  0  0  0  0  0  0
    3.2538   -2.5153   -1.9679 C   0  0  1  0  0  0  0  0  0  0  0  0
    3.1850   -2.7870   -3.4645 C   0  0  0  0  0  0  0  0  0  0  0  0
    3.0568   -4.3171   -3.5730 C   0  0  0  0  0  0  0  0  0  0  0  0
    2.8324   -4.8589   -2.1307 C   0  0  1  0  0  0  0  0  0  0  0  0
    4.1273   -5.2432   -1.6560 O   0  0  0  0  0  0  0  0  0  0  0  0
    1.8540   -6.0651   -2.1237 C   0  0  0  0  0  0  0  0  0  0  0  0
    1.1364   -6.3462   -3.0880 O   0  0  0  0  0  0  0  0  0  0  0  0
    1.6976   -6.8454   -0.8189 C   0  0  0  0  0  0  0  0  0  0  0  0
    2.8621   -6.8532   -0.0080 O   0  0  0  0  0  0  0  0  0  0  0  0
    1.2638    1.8841    0.7409 H   0  0  0  0  0  0  0  0  0  0  0  0
    0.7155    0.2646    1.1599 H   0  0  0  0  0  0  0  0  0  0  0  0
    1.0074    0.6879   -0.5220 H   0  0  0  0  0  0  0  0  0  0  0  0
    2.7478   -0.3482    2.7525 H   0  0  0  0  0  0  0  0  0  0  0  0
    2.6787    1.3878    2.5920 H   0  0  0  0  0  0  0  0  0  0  0  0
    5.2021   -0.2999    2.2363 H   0  0  0  0  0  0  0  0  0  0  0  0
    4.7703    0.7515    3.6004 H   0  0  0  0  0  0  0  0  0  0  0  0
    5.4424    2.6765   -0.1711 H   0  0  0  0  0  0  0  0  0  0  0  0
    4.2398    2.0667   -2.1091 H   0  0  0  0  0  0  0  0  0  0  0  0
    2.5430    1.7155   -1.8478 H   0  0  0  0  0  0  0  0  0  0  0  0
    4.8505   -0.2951   -2.0852 H   0  0  0  0  0  0  0  0  0  0  0  0
    3.5632   -0.0222   -3.2549 H   0  0  0  0  0  0  0  0  0  0  0  0
    1.8853   -0.8766   -1.7227 H   0  0  0  0  0  0  0  0  0  0  0  0
    4.1658   -1.3059    0.2989 H   0  0  0  0  0  0  0  0  0  0  0  0
    1.8928   -4.2976    0.6660 H   0  0  0  0  0  0  0  0  0  0  0  0
    3.5885   -3.8630    0.4294 H   0  0  0  0  0  0  0  0  0  0  0  0
    0.4601   -2.4150   -1.2137 H   0  0  0  0  0  0  0  0  0  0  0  0
    0.2073   -4.1463   -1.1896 H   0  0  0  0  0  0  0  0  0  0  0  0
    0.5916   -3.3362   -2.7080 H   0  0  0  0  0  0  0  0  0  0  0  0
    4.2928   -2.7214   -1.6634 H   0  0  0  0  0  0  0  0  0  0  0  0
    4.0776   -2.4273   -3.9868 H   0  0  0  0  0  0  0  0  0  0  0  0
    2.3172   -2.2986   -3.9220 H   0  0  0  0  0  0  0  0  0  0  0  0
    3.9680   -4.7373   -4.0152 H   0  0  0  0  0  0  0  0  0  0  0  0
    2.2311   -4.5474   -4.2545 H   0  0  0  0  0  0  0  0  0  0  0  0
    3.9939   -5.7988   -0.8573 H   0  0  0  0  0  0  0  0  0  0  0  0
    1.4552   -7.8817   -1.0767 H   0  0  0  0  0  0  0  0  0  0  0  0
    0.8732   -6.4119   -0.2466 H   0  0  0  0  0  0  0  0  0  0  0  0
    2.7638   -7.6018    0.6113 H   0  0  0  0  0  0  0  0  0  0  0  0
  1 27  1  0  0  0  0
  1 28  1  0  0  0  0
  1 29  1  0  0  0  0
  2  1  1  6  0  0  0
  2  3  1  0  0  0  0
  2  8  1  0  0  0  0
  2 12  1  0  0  0  0
  3  4  1  0  0  0  0
  3 30  1  0  0  0  0
  3 31  1  0  0  0  0
  4  5  1  0  0  0  0
  4 32  1  0  0  0  0
  4 33  1  0  0  0  0
  5  6  2  0  0  0  0
  5  7  1  0  0  0  0
  7  8  2  0  0  0  0
  7 34  1  0  0  0  0
  8  9  1  0  0  0  0
  9 10  1  0  0  0  0
  9 35  1  0  0  0  0
  9 36  1  0  0  0  0
 10 11  1  0  0  0  0
 10 37  1  0  0  0  0
 10 38  1  0  0  0  0
 11 12  1  0  0  0  0
 11 18  1  0  0  0  0
 11 39  1  6  0  0  0
 12 13  1  0  0  0  0
 12 40  1  1  0  0  0
 13 14  2  0  0  0  0
 13 15  1  0  0  0  0
 15 16  1  0  0  0  0
 15 41  1  0  0  0  0
 15 42  1  0  0  0  0
 16 17  1  6  0  0  0
 16 18  1  0  0  0  0
 16 21  1  0  0  0  0
 17 43  1  0  0  0  0
 17 44  1  0  0  0  0
 17 45  1  0  0  0  0
 18 19  1  0  0  0  0
 18 46  1  1  0  0  0
 19 20  1  0  0  0  0
 19 47  1  0  0  0  0
 19 48  1  0  0  0  0
 20 21  1  0  0  0  0
 20 49  1  0  0  0  0
 20 50  1  0  0  0  0
 21 23  1  1  0  0  0
 21 22  1  0  0  0  0
 22 51  1  0  0  0  0
 23 24  2  0  0  0  0
 23 25  1  0  0  0  0
 25 26  1  0  0  0  0
 25 52  1  0  0  0  0
 25 53  1  0  0  0  0
 26 54  1  0  0  0  0
M  END
$$$$
