CHEBI:8691
 OpenBabel04242411143D

 74 78  0  0  1  0  0  0  0  0999 V2000
    5.8264   -1.8959    5.4848 C   0  0  0  0  0  0  0  0  0  0  0  0
    4.5351   -1.5369    4.7554 C   0  0  0  0  0  0  0  0  0  0  0  0
    3.2347   -1.8603    5.5411 C   0  0  1  0  0  0  0  0  0  0  0  0
    3.1924   -3.3618    5.8735 C   0  0  0  0  0  0  0  0  0  0  0  0
    3.2703   -1.1928    6.8164 O   0  0  0  0  0  0  0  0  0  0  0  0
    3.1000    0.1534    6.8325 C   0  0  0  0  0  0  0  0  0  0  0  0
    3.4413    0.6966    8.1873 C   0  0  0  0  0  0  0  0  0  0  0  0
    2.7824    0.8414    5.8743 O   0  0  0  0  0  0  0  0  0  0  0  0
    2.0009   -1.5899    4.6354 C   0  0  0  0  0  0  0  0  0  0  0  0
    2.0411   -1.5292    3.4108 O   0  0  0  0  0  0  0  0  0  0  0  0
    0.8348   -1.5604    5.3580 O   0  0  0  0  0  0  0  0  0  0  0  0
   -0.3284   -1.9135    4.6006 C   0  0  1  0  0  0  0  0  0  0  0  0
   -0.4129   -3.4413    4.3994 C   0  0  0  0  0  0  0  0  0  0  0  0
    0.5683   -4.1778    4.3949 O   0  0  0  0  0  0  0  0  0  0  0  0
   -1.6309   -3.9275    4.0524 O   0  0  0  0  0  0  0  0  0  0  0  0
   -2.7463   -3.8580    4.9692 C   0  0  2  0  0  0  0  0  0  0  0  0
   -2.6982   -4.9946    6.0155 C   0  0  0  0  0  0  0  0  0  0  0  0
   -1.7236   -4.7368    7.1817 C   0  0  1  0  0  0  0  0  0  0  0  0
   -1.4498   -5.9006    8.1305 C   0  0  0  0  0  0  0  0  0  0  0  0
   -1.8348   -7.2929    7.7196 C   0  0  0  0  0  0  0  0  0  0  0  0
   -0.8072   -5.6940    9.2960 C   0  0  0  0  0  0  0  0  0  0  0  0
   -0.3876   -4.3284    9.7131 C   0  0  0  0  0  0  0  0  0  0  0  0
    0.3529   -4.1953   10.6879 O   0  0  0  0  0  0  0  0  0  0  0  0
   -0.8004   -3.1256    8.8483 C   0  0  1  0  0  0  0  0  0  0  0  0
    0.3659   -2.8802    8.0597 O   0  0  0  0  0  0  0  0  0  0  0  0
   -2.0898   -3.4167    7.9741 C   0  0  1  0  0  0  0  0  0  0  0  0
   -3.2030   -3.6847    9.0792 C   0  0  0  0  0  0  0  0  0  0  0  0
   -2.2938   -2.1867    6.6656 C   0  0  1  0  0  0  0  0  0  0  0  0
   -3.3045   -0.4024    6.1485 C   0  0  1  0  0  0  0  0  0  0  0  0
   -4.6700    0.0077    6.5889 O   0  0  0  0  0  0  0  0  0  0  0  0
   -2.4895    0.8093    6.4712 C   0  0  2  0  0  0  0  0  0  0  0  0
   -2.9975    1.5680    7.5564 O   0  0  0  0  0  0  0  0  0  0  0  0
   -1.6672   -0.3022    6.8700 C   0  0  2  0  0  0  0  0  0  0  0  0
   -0.4466    0.1186    7.6569 C   0  0  0  0  0  0  0  0  0  0  0  0
   -2.9851   -1.0539    7.9777 O   0  0  0  0  0  0  0  0  0  0  0  0
   -3.9507   -2.2260    6.8617 C   0  0  0  0  0  0  0  0  0  0  0  0
   -2.9369   -2.4683    5.4862 C   0  0  1  0  0  0  0  0  0  0  0  0
   -1.6169   -1.2758    5.1775 C   0  0  1  0  0  0  0  0  0  0  0  0
    6.6888   -1.5223    4.9234 H   0  0  0  0  0  0  0  0  0  0  0  0
    5.9431   -2.9804    5.5739 H   0  0  0  0  0  0  0  0  0  0  0  0
    5.8620   -1.4587    6.4868 H   0  0  0  0  0  0  0  0  0  0  0  0
    4.5319   -2.0525    3.7867 H   0  0  0  0  0  0  0  0  0  0  0  0
    4.5692   -0.4646    4.5282 H   0  0  0  0  0  0  0  0  0  0  0  0
    3.9865   -3.6470    6.5712 H   0  0  0  0  0  0  0  0  0  0  0  0
    3.2747   -3.9776    4.9715 H   0  0  0  0  0  0  0  0  0  0  0  0
    2.2554   -3.6249    6.3749 H   0  0  0  0  0  0  0  0  0  0  0  0
    2.8842    1.6208    8.3604 H   0  0  0  0  0  0  0  0  0  0  0  0
    4.5152    0.8949    8.2368 H   0  0  0  0  0  0  0  0  0  0  0  0
    3.1596   -0.0168    8.9669 H   0  0  0  0  0  0  0  0  0  0  0  0
   -0.2374   -1.5106    3.5817 H   0  0  0  0  0  0  0  0  0  0  0  0
   -3.6138   -4.0718    4.3331 H   0  0  0  0  0  0  0  0  0  0  0  0
   -2.4018   -5.9108    5.4901 H   0  0  0  0  0  0  0  0  0  0  0  0
   -3.7052   -5.1676    6.4127 H   0  0  0  0  0  0  0  0  0  0  0  0
   -0.7532   -4.5819    6.6932 H   0  0  0  0  0  0  0  0  0  0  0  0
   -2.9162   -7.3616    7.5654 H   0  0  0  0  0  0  0  0  0  0  0  0
   -1.5688   -8.0338    8.4818 H   0  0  0  0  0  0  0  0  0  0  0  0
   -1.3224   -7.5758    6.7950 H   0  0  0  0  0  0  0  0  0  0  0  0
   -0.5496   -6.4925    9.9825 H   0  0  0  0  0  0  0  0  0  0  0  0
   -0.9788   -2.2620    9.4985 H   0  0  0  0  0  0  0  0  0  0  0  0
    1.1031   -2.7643    8.6919 H   0  0  0  0  0  0  0  0  0  0  0  0
   -2.8083   -4.1207   10.0022 H   0  0  0  0  0  0  0  0  0  0  0  0
   -3.9576   -4.4085    8.7470 H   0  0  0  0  0  0  0  0  0  0  0  0
   -3.6931   -2.7673    9.4195 H   0  0  0  0  0  0  0  0  0  0  0  0
   -1.1829   -2.2181    6.6402 H   0  0  0  0  0  0  0  0  0  0  0  0
   -3.5601   -0.4100    5.0671 H   0  0  0  0  0  0  0  0  0  0  0  0
   -4.6058    0.9227    6.9333 H   0  0  0  0  0  0  0  0  0  0  0  0
   -2.1378    1.4184    5.6370 H   0  0  0  0  0  0  0  0  0  0  0  0
   -3.1543    0.9183    8.2803 H   0  0  0  0  0  0  0  0  0  0  0  0
   -0.7178    0.4003    8.6791 H   0  0  0  0  0  0  0  0  0  0  0  0
    0.0476    0.9705    7.1779 H   0  0  0  0  0  0  0  0  0  0  0  0
    0.2999   -0.6635    7.7297 H   0  0  0  0  0  0  0  0  0  0  0  0
   -4.9606   -1.8511    6.6562 H   0  0  0  0  0  0  0  0  0  0  0  0
   -4.2560   -3.1083    7.4034 H   0  0  0  0  0  0  0  0  0  0  0  0
   -1.9002   -0.5680    4.3770 H   0  0  0  0  0  0  0  0  0  0  0  0
  1  2  1  0  0  0  0
  1 39  1  0  0  0  0
  1 40  1  0  0  0  0
  1 41  1  0  0  0  0
  2  3  1  0  0  0  0
  2 42  1  0  0  0  0
  2 43  1  0  0  0  0
  3  4  1  0  0  0  0
  3  5  1  1  0  0  0
  3  9  1  0  0  0  0
  4 44  1  0  0  0  0
  4 45  1  0  0  0  0
  4 46  1  0  0  0  0
  5  6  1  0  0  0  0
  6  7  1  0  0  0  0
  6  8  2  0  0  0  0
  7 47  1  0  0  0  0
  7 48  1  0  0  0  0
  7 49  1  0  0  0  0
  9 10  2  0  0  0  0
  9 11  1  0  0  0  0
 12 13  1  0  0  0  0
 12 38  1  0  0  0  0
 12 11  1  0  0  0  0
 12 50  1  6  0  0  0
 13 15  1  0  0  0  0
 13 14  2  0  0  0  0
 15 16  1  0  0  0  0
 16 17  1  0  0  0  0
 16 37  1  0  0  0  0
 16 51  1  1  0  0  0
 17 18  1  0  0  0  0
 17 52  1  0  0  0  0
 17 53  1  0  0  0  0
 18 19  1  0  0  0  0
 18 26  1  0  0  0  0
 18 54  1  1  0  0  0
 19 21  2  0  0  0  0
 19 20  1  0  0  0  0
 20 55  1  0  0  0  0
 20 56  1  0  0  0  0
 20 57  1  0  0  0  0
 21 22  1  0  0  0  0
 21 58  1  0  0  0  0
 22 24  1  0  0  0  0
 22 23  2  0  0  0  0
 24 26  1  0  0  0  0
 24 25  1  0  0  0  0
 24 59  1  1  0  0  0
 25 60  1  0  0  0  0
 26 28  1  0  0  0  0
 26 27  1  6  0  0  0
 27 61  1  0  0  0  0
 27 62  1  0  0  0  0
 27 63  1  0  0  0  0
 28 29  1  0  0  0  0
 28 37  1  0  0  0  0
 28 64  1  1  0  0  0
 29 31  1  0  0  0  0
 29 30  1  0  0  0  0
 29 65  1  6  0  0  0
 30 66  1  0  0  0  0
 31 33  1  0  0  0  0
 31 32  1  0  0  0  0
 31 67  1  1  0  0  0
 32 68  1  0  0  0  0
 33 35  1  0  0  0  0
 33 38  1  0  0  0  0
 33 34  1  6  0  0  0
 34 69  1  0  0  0  0
 34 70  1  0  0  0  0
 34 71  1  0  0  0  0
 35 36  1  0  0  0  0
 36 72  1  0  0  0  0
 36 73  1  0  0  0  0
 37 36  1  1  0  0  0
 37 38  1  0  0  0  0
 38 74  1  1  0  0  0
M  END
$$$$
