CHEBI:18304
 OpenBabel04252409223D

 71 75  0  0  1  0  0  0  0  0999 V2000
    3.5040    3.6474    3.6495 N   0  0  0  0  0  0  0  0  0  0  0  0
    4.2574    2.6415    3.0590 C   0  0  0  0  0  0  0  0  0  0  0  0
    3.6481    1.4742    2.7514 N   0  0  0  0  0  0  0  0  0  0  0  0
    4.3781    0.4973    2.1695 C   0  0  0  0  0  0  0  0  0  0  0  0
    5.6929    0.5077    1.8490 N   0  0  0  0  0  0  0  0  0  0  0  0
    6.2519    1.6750    2.2103 C   0  0  0  0  0  0  0  0  0  0  0  0
    5.6273    2.7703    2.7836 C   0  0  0  0  0  0  0  0  0  0  0  0
    6.5244    3.8008    2.9711 N   0  0  0  0  0  0  0  0  0  0  0  0
    7.6699    3.3331    2.5233 C   0  0  0  0  0  0  0  0  0  0  0  0
    7.5635    2.0418    2.0882 N   0  0  0  0  0  0  0  0  0  0  0  0
    8.6191    1.1881    1.5798 C   0  0  2  0  0  0  0  0  0  0  0  0
    9.8979    1.8240    1.8059 O   0  0  0  0  0  0  0  0  0  0  0  0
   10.7230    1.6048    0.6284 C   0  0  2  0  0  0  0  0  0  0  0  0
   10.9866    2.9545   -0.0456 C   0  0  0  0  0  0  0  0  0  0  0  0
   11.7637    3.7890    0.8094 O   0  0  0  0  0  0  0  0  0  0  0  0
   12.3326    5.1646    0.2042 P   0  0  0  0  0  0  0  0  0  0  0  0
   13.1227    5.9979    1.1651 O   0  0  0  0  0  0  0  0  0  0  0  0
   13.1566    4.6918   -1.0797 O   0  0  0  0  0  0  0  0  0  0  0  0
   11.0461    5.8846   -0.3974 O   0  0  0  0  0  0  0  0  0  0  0  0
   11.2261    7.2715   -1.1514 P   0  0  0  0  0  0  0  0  0  0  0  0
   12.4402    7.3258   -2.0213 O   0  0  0  0  0  0  0  0  0  0  0  0
    9.8289    7.4578   -1.8993 O   0  0  0  0  0  0  0  0  0  0  0  0
   11.1527    8.3977   -0.0076 O   0  0  0  0  0  0  0  0  0  0  0  0
   12.3492    9.1260    0.2357 C   0  0  0  0  0  0  0  0  0  0  0  0
   12.2129    9.9659    1.5111 C   0  0  1  0  0  0  0  0  0  0  0  0
   11.9368    9.0944    2.6361 O   0  0  0  0  0  0  0  0  0  0  0  0
   13.1054    9.0244    3.4791 C   0  0  1  0  0  0  0  0  0  0  0  0
   13.3523    7.6124    3.8969 N   0  3  0  0  0  0  0  0  0  0  0  0
   14.5894    7.1789    4.2436 C   0  0  0  0  0  0  0  0  0  0  0  0
   14.8069    5.8455    4.5876 C   0  0  0  0  0  0  0  0  0  0  0  0
   13.7432    4.9509    4.5958 C   0  0  0  0  0  0  0  0  0  0  0  0
   12.4731    5.4184    4.2822 C   0  0  0  0  0  0  0  0  0  0  0  0
   11.2827    4.5609    4.2140 C   0  0  0  0  0  0  0  0  0  0  0  0
   10.1780    4.9742    3.9120 O   0  0  0  0  0  0  0  0  0  0  0  0
   11.5413    3.2758    4.4777 O   0  0  0  0  0  0  0  0  0  0  0  0
   12.2974    6.7604    3.9584 C   0  0  0  0  0  0  0  0  0  0  0  0
   14.2510    9.6300    2.6619 C   0  0  2  0  0  0  0  0  0  0  0  0
   15.2782   10.1954    3.4719 O   0  0  0  0  0  0  0  0  0  0  0  0
   13.5131   10.6853    1.8541 C   0  0  2  0  0  0  0  0  0  0  0  0
   13.2754   11.7886    2.7378 O   0  0  0  0  0  0  0  0  0  0  0  0
    9.9457    0.6563   -0.2854 C   0  0  1  0  0  0  0  0  0  0  0  0
   10.2491   -0.7010    0.0565 O   0  0  0  0  0  0  0  0  0  0  0  0
    8.4996    0.9450    0.0749 C   0  0  1  0  0  0  0  0  0  0  0  0
    7.6704   -0.1558   -0.2906 O   0  0  0  0  0  0  0  0  0  0  0  0
    2.6722    3.2854    4.0983 H   0  0  0  0  0  0  0  0  0  0  0  0
    4.0604    4.3164    4.1701 H   0  0  0  0  0  0  0  0  0  0  0  0
    3.8353   -0.4137    1.9300 H   0  0  0  0  0  0  0  0  0  0  0  0
    8.5995    3.8833    2.4956 H   0  0  0  0  0  0  0  0  0  0  0  0
    8.5902    0.2561    2.1574 H   0  0  0  0  0  0  0  0  0  0  0  0
   11.6642    1.1663    0.9779 H   0  0  0  0  0  0  0  0  0  0  0  0
   11.5226    2.7981   -0.9869 H   0  0  0  0  0  0  0  0  0  0  0  0
   10.0438    3.4715   -0.2513 H   0  0  0  0  0  0  0  0  0  0  0  0
   13.5982    5.4247   -1.5604 H   0  0  0  0  0  0  0  0  0  0  0  0
    9.0579    7.4488   -1.3033 H   0  0  0  0  0  0  0  0  0  0  0  0
   12.5441    9.7759   -0.6238 H   0  0  0  0  0  0  0  0  0  0  0  0
   13.1752    8.4161    0.3298 H   0  0  0  0  0  0  0  0  0  0  0  0
   11.3627   10.6507    1.4250 H   0  0  0  0  0  0  0  0  0  0  0  0
   12.9125    9.5755    4.4080 H   0  0  0  0  0  0  0  0  0  0  0  0
   15.4111    7.8891    4.2388 H   0  0  0  0  0  0  0  0  0  0  0  0
   15.8096    5.5015    4.8342 H   0  0  0  0  0  0  0  0  0  0  0  0
   13.9109    3.9024    4.8359 H   0  0  0  0  0  0  0  0  0  0  0  0
   10.7050    2.7865    4.3093 H   0  0  0  0  0  0  0  0  0  0  0  0
   11.3154    7.1585    3.7132 H   0  0  0  0  0  0  0  0  0  0  0  0
   14.7028    8.8845    1.9985 H   0  0  0  0  0  0  0  0  0  0  0  0
   15.0408   11.1404    3.6088 H   0  0  0  0  0  0  0  0  0  0  0  0
   14.0800   11.0545    0.9949 H   0  0  0  0  0  0  0  0  0  0  0  0
   12.8397   12.5013    2.2281 H   0  0  0  0  0  0  0  0  0  0  0  0
   10.1632    0.7795   -1.3505 H   0  0  0  0  0  0  0  0  0  0  0  0
    9.5117   -1.2348   -0.3100 H   0  0  0  0  0  0  0  0  0  0  0  0
    8.1491    1.8420   -0.4499 H   0  0  0  0  0  0  0  0  0  0  0  0
    6.8153   -0.0590    0.1825 H   0  0  0  0  0  0  0  0  0  0  0  0
  1  2  1  0  0  0  0
  1 45  1  0  0  0  0
  1 46  1  0  0  0  0
  2  3  1  0  0  0  0
  2  7  2  0  0  0  0
  3  4  2  0  0  0  0
  4  5  1  0  0  0  0
  4 47  1  0  0  0  0
  5  6  2  0  0  0  0
  6  7  1  0  0  0  0
  6 10  1  0  0  0  0
  7  8  1  0  0  0  0
  8  9  2  0  0  0  0
  9 10  1  0  0  0  0
  9 48  1  0  0  0  0
 10 11  1  0  0  0  0
 11 12  1  0  0  0  0
 11 43  1  0  0  0  0
 11 49  1  1  0  0  0
 12 13  1  0  0  0  0
 13 14  1  0  0  0  0
 13 41  1  0  0  0  0
 13 50  1  1  0  0  0
 14 15  1  0  0  0  0
 14 51  1  0  0  0  0
 14 52  1  0  0  0  0
 15 16  1  0  0  0  0
 16 17  2  0  0  0  0
 16 18  1  0  0  0  0
 16 19  1  0  0  0  0
 18 53  1  0  0  0  0
 19 20  1  0  0  0  0
 20 21  2  0  0  0  0
 20 22  1  0  0  0  0
 20 23  1  0  0  0  0
 22 54  1  0  0  0  0
 23 24  1  0  0  0  0
 24 25  1  0  0  0  0
 24 55  1  0  0  0  0
 24 56  1  0  0  0  0
 25 26  1  0  0  0  0
 25 39  1  0  0  0  0
 25 57  1  6  0  0  0
 26 27  1  0  0  0  0
 27 28  1  0  0  0  0
 27 37  1  0  0  0  0
 27 58  1  1  0  0  0
 28 29  1  0  0  0  0
 28 36  2  0  0  0  0
 29 30  2  0  0  0  0
 29 59  1  0  0  0  0
 30 31  1  0  0  0  0
 30 60  1  0  0  0  0
 31 32  2  0  0  0  0
 31 61  1  0  0  0  0
 32 33  1  0  0  0  0
 32 36  1  0  0  0  0
 33 34  2  0  0  0  0
 33 35  1  0  0  0  0
 35 62  1  0  0  0  0
 36 63  1  0  0  0  0
 37 38  1  0  0  0  0
 37 39  1  0  0  0  0
 37 64  1  6  0  0  0
 38 65  1  0  0  0  0
 39 40  1  0  0  0  0
 39 66  1  6  0  0  0
 40 67  1  0  0  0  0
 41 42  1  0  0  0  0
 41 43  1  0  0  0  0
 41 68  1  6  0  0  0
 42 69  1  0  0  0  0
 43 44  1  0  0  0  0
 43 70  1  6  0  0  0
 44 71  1  0  0  0  0
M  CHG  1  28   1
M  END
$$$$
