CHEBI:16625
 OpenBabel04242414563D

 95 97  0  0  1  0  0  0  0  0999 V2000
   24.3117   11.4928   22.3098 C   0  0  0  0  0  0  0  0  0  0  0  0
   25.2226   12.0602   21.2333 C   0  0  0  0  0  0  0  0  0  0  0  0
   24.5090   12.3671   19.9328 C   0  0  0  0  0  0  0  0  0  0  0  0
   24.8854   13.0992   19.0370 O   0  0  0  0  0  0  0  0  0  0  0  0
   23.4282   11.5969   19.7016 O   0  0  0  0  0  0  0  0  0  0  0  0
   26.1405   13.1107   21.8119 C   0  0  0  0  0  0  0  0  0  0  0  0
   27.0149   12.8144   22.6239 O   0  0  0  0  0  0  0  0  0  0  0  0
   25.9695   14.8013   21.3537 S   0  0  0  0  0  0  0  0  0  0  0  0
   27.5888   14.9976   20.5067 C   0  0  0  0  0  0  0  0  0  0  0  0
   27.5864   14.2349   19.1841 C   0  0  0  0  0  0  0  0  0  0  0  0
   28.7627   14.4286   18.3585 N   0  0  0  0  0  0  0  0  0  0  0  0
   28.8255   14.2691   16.9973 C   0  0  0  0  0  0  0  0  0  0  0  0
   29.9277   14.1070   16.4733 O   0  0  0  0  0  0  0  0  0  0  0  0
   27.5554   14.3162   16.1693 C   0  0  0  0  0  0  0  0  0  0  0  0
   27.0940   12.9370   15.7325 C   0  0  0  0  0  0  0  0  0  0  0  0
   26.8077   12.0305   16.8273 N   0  0  0  0  0  0  0  0  0  0  0  0
   26.6537   10.6815   16.5459 C   0  0  0  0  0  0  0  0  0  0  0  0
   26.6908   10.2591   15.3992 O   0  0  0  0  0  0  0  0  0  0  0  0
   26.3869    9.8012   17.7930 C   0  0  2  0  0  0  0  0  0  0  0  0
   26.4711   10.6686   18.9301 O   0  0  0  0  0  0  0  0  0  0  0  0
   27.2952    8.5637   18.0638 C   0  0  0  0  0  0  0  0  0  0  0  0
   28.7671    9.0071   18.2002 C   0  0  0  0  0  0  0  0  0  0  0  0
   26.8752    7.9318   19.4185 C   0  0  0  0  0  0  0  0  0  0  0  0
   27.1850    7.4606   16.9783 C   0  0  0  0  0  0  0  0  0  0  0  0
   27.5504    7.9660   15.7201 O   0  0  0  0  0  0  0  0  0  0  0  0
   26.7540    7.6651   14.3634 P   0  0  0  0  0  0  0  0  0  0  0  0
   27.0808    8.5199   13.1799 O   0  0  0  0  0  0  0  0  0  0  0  0
   27.3208    6.1975   14.0176 O   0  0  0  0  0  0  0  0  0  0  0  0
   25.2228    7.3564   14.5871 O   0  0  0  0  0  0  0  0  0  0  0  0
   24.0300    8.0609   15.3340 P   0  0  0  0  0  0  0  0  0  0  0  0
   23.9634    9.5430   15.4626 O   0  0  0  0  0  0  0  0  0  0  0  0
   22.7460    7.4975   14.5498 O   0  0  0  0  0  0  0  0  0  0  0  0
   23.9230    7.2567   16.7125 O   0  0  0  0  0  0  0  0  0  0  0  0
   23.0759    7.6964   17.7552 C   0  0  0  0  0  0  0  0  0  0  0  0
   23.1214    6.6110   18.8372 C   0  0  1  0  0  0  0  0  0  0  0  0
   23.1278    7.2140   20.1517 O   0  0  0  0  0  0  0  0  0  0  0  0
   21.9259    6.7978   20.8324 C   0  0  1  0  0  0  0  0  0  0  0  0
   21.5479    7.8397   21.7542 N   0  0  0  0  0  0  0  0  0  0  0  0
   21.7386    7.7654   23.1129 C   0  0  0  0  0  0  0  0  0  0  0  0
   21.5033    8.9121   23.7113 N   0  0  0  0  0  0  0  0  0  0  0  0
   21.1266    9.7615   22.6932 C   0  0  0  0  0  0  0  0  0  0  0  0
   20.8178   11.1318   22.6852 C   0  0  0  0  0  0  0  0  0  0  0  0
   20.8801   11.9271   23.8257 N   0  0  0  0  0  0  0  0  0  0  0  0
   20.5246   11.7200   21.5054 N   0  0  0  0  0  0  0  0  0  0  0  0
   20.5278   10.9512   20.3939 C   0  0  0  0  0  0  0  0  0  0  0  0
   20.8277    9.6390   20.2689 N   0  0  0  0  0  0  0  0  0  0  0  0
   21.1269    9.1087   21.4679 C   0  0  0  0  0  0  0  0  0  0  0  0
   20.9422    6.4091   19.7297 C   0  0  2  0  0  0  0  0  0  0  0  0
   19.8754    5.5898   20.1877 O   0  0  0  0  0  0  0  0  0  0  0  0
   21.8999    5.6857   18.7797 C   0  0  2  0  0  0  0  0  0  0  0  0
   22.2261    4.4086   19.3374 O   0  0  0  0  0  0  0  0  0  0  0  0
   23.1468    3.4178   18.4848 P   0  0  0  0  0  0  0  0  0  0  0  0
   23.8755    3.9965   17.3252 O   0  0  0  0  0  0  0  0  0  0  0  0
   24.0524    2.7136   19.5891 O   0  0  0  0  0  0  0  0  0  0  0  0
   22.1867    2.2174   18.0670 O   0  0  0  0  0  0  0  0  0  0  0  0
   23.8356   10.5725   21.9549 H   0  0  0  0  0  0  0  0  0  0  0  0
   23.5352   12.2082   22.5870 H   0  0  0  0  0  0  0  0  0  0  0  0
   24.8747   11.2290   23.2112 H   0  0  0  0  0  0  0  0  0  0  0  0
   25.9075   11.2419   20.9934 H   0  0  0  0  0  0  0  0  0  0  0  0
   23.1775   11.8045   18.7769 H   0  0  0  0  0  0  0  0  0  0  0  0
   28.4011   14.6562   21.1567 H   0  0  0  0  0  0  0  0  0  0  0  0
   27.7458   16.0645   20.3189 H   0  0  0  0  0  0  0  0  0  0  0  0
   26.7100   14.5300   18.6121 H   0  0  0  0  0  0  0  0  0  0  0  0
   27.5384   13.1599   19.3752 H   0  0  0  0  0  0  0  0  0  0  0  0
   29.6731   14.2940   18.7866 H   0  0  0  0  0  0  0  0  0  0  0  0
   27.7789   14.9144   15.2771 H   0  0  0  0  0  0  0  0  0  0  0  0
   26.7552   14.8557   16.6784 H   0  0  0  0  0  0  0  0  0  0  0  0
   27.8525   12.4721   15.0912 H   0  0  0  0  0  0  0  0  0  0  0  0
   26.1760   13.0237   15.1388 H   0  0  0  0  0  0  0  0  0  0  0  0
   26.2036   12.3591   17.5809 H   0  0  0  0  0  0  0  0  0  0  0  0
   25.3455    9.4865   17.7295 H   0  0  0  0  0  0  0  0  0  0  0  0
   27.3621   11.0618   18.8855 H   0  0  0  0  0  0  0  0  0  0  0  0
   29.1249    9.4968   17.2896 H   0  0  0  0  0  0  0  0  0  0  0  0
   28.9073    9.7044   19.0337 H   0  0  0  0  0  0  0  0  0  0  0  0
   29.4172    8.1480   18.3985 H   0  0  0  0  0  0  0  0  0  0  0  0
   27.5416    7.1095   19.7007 H   0  0  0  0  0  0  0  0  0  0  0  0
   25.8582    7.5327   19.3668 H   0  0  0  0  0  0  0  0  0  0  0  0
   26.8970    8.6569   20.2404 H   0  0  0  0  0  0  0  0  0  0  0  0
   26.1873    7.0310   16.9555 H   0  0  0  0  0  0  0  0  0  0  0  0
   27.8636    6.6335   17.2189 H   0  0  0  0  0  0  0  0  0  0  0  0
   27.9049    6.2967   13.2410 H   0  0  0  0  0  0  0  0  0  0  0  0
   22.6089    7.9956   13.7226 H   0  0  0  0  0  0  0  0  0  0  0  0
   22.0656    7.8562   17.3660 H   0  0  0  0  0  0  0  0  0  0  0  0
   23.4388    8.6492   18.1481 H   0  0  0  0  0  0  0  0  0  0  0  0
   24.0583    6.0500   18.7691 H   0  0  0  0  0  0  0  0  0  0  0  0
   22.1738    5.9163   21.4390 H   0  0  0  0  0  0  0  0  0  0  0  0
   22.0774    6.8620   23.6054 H   0  0  0  0  0  0  0  0  0  0  0  0
   21.4482   11.5112   24.5576 H   0  0  0  0  0  0  0  0  0  0  0  0
   21.0652   12.8946   23.5953 H   0  0  0  0  0  0  0  0  0  0  0  0
   20.2749   11.4675   19.4724 H   0  0  0  0  0  0  0  0  0  0  0  0
   20.5182    7.2883   19.2334 H   0  0  0  0  0  0  0  0  0  0  0  0
   19.3360    5.3453   19.4145 H   0  0  0  0  0  0  0  0  0  0  0  0
   21.4825    5.5334   17.7796 H   0  0  0  0  0  0  0  0  0  0  0  0
   23.5095    2.2926   20.2795 H   0  0  0  0  0  0  0  0  0  0  0  0
   22.5763    1.7293   17.3159 H   0  0  0  0  0  0  0  0  0  0  0  0
  1  2  1  0  0  0  0
  1 56  1  0  0  0  0
  1 57  1  0  0  0  0
  1 58  1  0  0  0  0
  2  3  1  0  0  0  0
  2  6  1  0  0  0  0
  2 59  1  0  0  0  0
  3  4  2  0  0  0  0
  3  5  1  0  0  0  0
  5 60  1  0  0  0  0
  6  7  2  0  0  0  0
  6  8  1  0  0  0  0
  8  9  1  0  0  0  0
  9 10  1  0  0  0  0
  9 61  1  0  0  0  0
  9 62  1  0  0  0  0
 10 11  1  0  0  0  0
 10 63  1  0  0  0  0
 10 64  1  0  0  0  0
 11 12  1  0  0  0  0
 11 65  1  0  0  0  0
 12 13  2  0  0  0  0
 12 14  1  0  0  0  0
 14 15  1  0  0  0  0
 14 66  1  0  0  0  0
 14 67  1  0  0  0  0
 15 16  1  0  0  0  0
 15 68  1  0  0  0  0
 15 69  1  0  0  0  0
 16 17  1  0  0  0  0
 16 70  1  0  0  0  0
 17 18  2  0  0  0  0
 19 21  1  0  0  0  0
 19 20  1  0  0  0  0
 19 17  1  0  0  0  0
 19 71  1  6  0  0  0
 20 72  1  0  0  0  0
 21 22  1  0  0  0  0
 21 23  1  0  0  0  0
 21 24  1  0  0  0  0
 22 73  1  0  0  0  0
 22 74  1  0  0  0  0
 22 75  1  0  0  0  0
 23 76  1  0  0  0  0
 23 77  1  0  0  0  0
 23 78  1  0  0  0  0
 24 25  1  0  0  0  0
 24 79  1  0  0  0  0
 24 80  1  0  0  0  0
 25 26  1  0  0  0  0
 26 27  2  0  0  0  0
 26 28  1  0  0  0  0
 26 29  1  0  0  0  0
 28 81  1  0  0  0  0
 29 30  1  0  0  0  0
 30 31  2  0  0  0  0
 30 32  1  0  0  0  0
 30 33  1  0  0  0  0
 32 82  1  0  0  0  0
 33 34  1  0  0  0  0
 34 83  1  0  0  0  0
 34 84  1  0  0  0  0
 35 36  1  0  0  0  0
 35 50  1  0  0  0  0
 35 34  1  0  0  0  0
 35 85  1  6  0  0  0
 36 37  1  0  0  0  0
 37 48  1  0  0  0  0
 37 38  1  0  0  0  0
 37 86  1  1  0  0  0
 38 39  1  0  0  0  0
 38 47  1  0  0  0  0
 39 40  2  0  0  0  0
 39 87  1  0  0  0  0
 40 41  1  0  0  0  0
 41 42  1  0  0  0  0
 41 47  2  0  0  0  0
 42 43  1  0  0  0  0
 42 44  2  0  0  0  0
 43 88  1  0  0  0  0
 43 89  1  0  0  0  0
 44 45  1  0  0  0  0
 45 46  2  0  0  0  0
 45 90  1  0  0  0  0
 46 47  1  0  0  0  0
 48 49  1  0  0  0  0
 48 50  1  0  0  0  0
 48 91  1  6  0  0  0
 49 92  1  0  0  0  0
 50 51  1  0  0  0  0
 50 93  1  6  0  0  0
 51 52  1  0  0  0  0
 52 53  2  0  0  0  0
 52 54  1  0  0  0  0
 52 55  1  0  0  0  0
 54 94  1  0  0  0  0
 55 95  1  0  0  0  0
M  END
$$$$
