CHEBI:17248
 OpenBabel04242416053D

 30 31  0  0  0  0  0  0  0  0999 V2000
    3.6969   -0.5039    2.9565 C   0  0  0  0  0  0  0  0  0  0  0  0
    4.5638   -1.0124    1.8118 C   0  0  0  0  0  0  0  0  0  0  0  0
    4.4286   -2.4277    1.7105 O   0  0  0  0  0  0  0  0  0  0  0  0
    4.2006   -0.3680    0.4713 C   0  0  0  0  0  0  0  0  0  0  0  0
    3.2446    0.4122    0.3730 O   0  0  0  0  0  0  0  0  0  0  0  0
    4.9821   -0.8224   -0.7759 C   0  0  0  0  0  0  0  0  0  0  0  0
    6.4683   -1.1828   -0.5130 C   0  0  0  0  0  0  0  0  0  0  0  0
    7.2580    0.0290   -0.2603 N   0  0  0  0  0  0  0  0  0  0  0  0
    7.0497    1.1689   -1.0453 C   0  0  0  0  0  0  0  0  0  0  0  0
    8.0116    2.1465   -1.0413 N   0  0  0  0  0  0  0  0  0  0  0  0
    7.8107    3.2128   -1.7439 C   0  0  0  0  0  0  0  0  0  0  0  0
    8.7387    4.2012   -1.7675 N   0  0  0  0  0  0  0  0  0  0  0  0
    6.6975    3.4111   -2.4930 N   0  0  0  0  0  0  0  0  0  0  0  0
    5.6764    2.5116   -2.5337 C   0  0  0  0  0  0  0  0  0  0  0  0
    4.6357    2.7308   -3.1489 O   0  0  0  0  0  0  0  0  0  0  0  0
    5.9021    1.2504   -1.7696 C   0  0  0  0  0  0  0  0  0  0  0  0
    4.9210    0.2423   -1.8113 N   0  0  0  0  0  0  0  0  0  0  0  0
    3.9762   -0.9951    3.8947 H   0  0  0  0  0  0  0  0  0  0  0  0
    2.6388   -0.7306    2.7831 H   0  0  0  0  0  0  0  0  0  0  0  0
    3.7984    0.5786    3.0820 H   0  0  0  0  0  0  0  0  0  0  0  0
    5.6065   -0.7762    2.0433 H   0  0  0  0  0  0  0  0  0  0  0  0
    3.4784   -2.6382    1.7766 H   0  0  0  0  0  0  0  0  0  0  0  0
    4.4639   -1.7093   -1.1584 H   0  0  0  0  0  0  0  0  0  0  0  0
    6.8789   -1.6773   -1.4028 H   0  0  0  0  0  0  0  0  0  0  0  0
    6.5924   -1.8801    0.3192 H   0  0  0  0  0  0  0  0  0  0  0  0
    8.2545   -0.1044   -0.1128 H   0  0  0  0  0  0  0  0  0  0  0  0
    9.6158    3.8994   -1.3539 H   0  0  0  0  0  0  0  0  0  0  0  0
    8.8679    4.6741   -2.6518 H   0  0  0  0  0  0  0  0  0  0  0  0
    6.5437    4.2830   -2.9697 H   0  0  0  0  0  0  0  0  0  0  0  0
    3.9924    0.6618   -1.9206 H   0  0  0  0  0  0  0  0  0  0  0  0
  1  2  1  0  0  0  0
  1 18  1  0  0  0  0
  1 19  1  0  0  0  0
  1 20  1  0  0  0  0
  2  3  1  0  0  0  0
  2  4  1  0  0  0  0
  2 21  1  0  0  0  0
  3 22  1  0  0  0  0
  4  5  2  0  0  0  0
  4  6  1  0  0  0  0
  6  7  1  0  0  0  0
  6 17  1  0  0  0  0
  6 23  1  0  0  0  0
  7  8  1  0  0  0  0
  7 24  1  0  0  0  0
  7 25  1  0  0  0  0
  8  9  1  0  0  0  0
  8 26  1  0  0  0  0
  9 10  1  0  0  0  0
  9 16  2  0  0  0  0
 10 11  2  0  0  0  0
 11 12  1  0  0  0  0
 11 13  1  0  0  0  0
 12 27  1  0  0  0  0
 12 28  1  0  0  0  0
 13 14  1  0  0  0  0
 13 29  1  0  0  0  0
 14 15  2  0  0  0  0
 14 16  1  0  0  0  0
 16 17  1  0  0  0  0
 17 30  1  0  0  0  0
M  END
$$$$
