CHEBI:16278
 OpenBabel04242414073D

 20 19  0  0  0  0  0  0  0  0999 V2000
    1.9315    1.8268   -0.9291 O   0  0  0  0  0  0  0  0  0  0  0  0
    1.6222    1.1805    0.0588 C   0  0  0  0  0  0  0  0  0  0  0  0
    0.3667    0.7269    0.2284 O   0  0  0  0  0  0  0  0  0  0  0  0
    2.5329    0.7614    1.1794 C   0  0  0  0  0  0  0  0  0  0  0  0
    3.8946    1.4394    1.0660 C   0  0  0  0  0  0  0  0  0  0  0  0
    3.8054    2.9357    1.3081 C   0  0  0  0  0  0  0  0  0  0  0  0
    2.8061    3.4733    1.7973 O   0  0  0  0  0  0  0  0  0  0  0  0
    5.0042    3.7908    0.9266 C   0  0  0  0  0  0  0  0  0  0  0  0
    4.6414    5.1876    0.9499 O   0  0  0  0  0  0  0  0  0  0  0  0
    6.1680    3.6008    1.8842 C   0  0  0  0  0  0  0  0  0  0  0  0
    6.5907    2.5229    2.2719 O   0  0  0  0  0  0  0  0  0  0  0  0
    6.7215    4.7870    2.2497 O   0  0  0  0  0  0  0  0  0  0  0  0
   -0.1286    1.0721   -0.5434 H   0  0  0  0  0  0  0  0  0  0  0  0
    2.6619   -0.3245    1.1182 H   0  0  0  0  0  0  0  0  0  0  0  0
    2.0578    1.0088    2.1349 H   0  0  0  0  0  0  0  0  0  0  0  0
    4.3239    1.2730    0.0717 H   0  0  0  0  0  0  0  0  0  0  0  0
    4.5695    1.0111    1.8127 H   0  0  0  0  0  0  0  0  0  0  0  0
    5.3282    3.5567   -0.0910 H   0  0  0  0  0  0  0  0  0  0  0  0
    3.7626    5.2200    1.3925 H   0  0  0  0  0  0  0  0  0  0  0  0
    6.1983    5.5122    1.8280 H   0  0  0  0  0  0  0  0  0  0  0  0
  1  2  2  0  0  0  0
  2  3  1  0  0  0  0
  2  4  1  0  0  0  0
  3 13  1  0  0  0  0
  4  5  1  0  0  0  0
  4 14  1  0  0  0  0
  4 15  1  0  0  0  0
  5  6  1  0  0  0  0
  5 16  1  0  0  0  0
  5 17  1  0  0  0  0
  6  7  2  0  0  0  0
  6  8  1  0  0  0  0
  8  9  1  0  0  0  0
  8 10  1  0  0  0  0
  8 18  1  0  0  0  0
  9 19  1  0  0  0  0
 10 11  2  0  0  0  0
 10 12  1  0  0  0  0
 12 20  1  0  0  0  0
M  END
$$$$
