CHEBI:17343
 OpenBabel04242416213D

 35 37  0  0  1  0  0  0  0  0999 V2000
   -5.3675    4.6043   -1.4574 O   0  0  0  0  0  0  0  0  0  0  0  0
   -4.9696    3.3942   -0.9711 C   0  0  0  0  0  0  0  0  0  0  0  0
   -5.1139    3.0700    0.3721 C   0  0  0  0  0  0  0  0  0  0  0  0
   -4.6918    1.8170    0.8248 C   0  0  0  0  0  0  0  0  0  0  0  0
   -4.1144    0.8836   -0.0563 C   0  0  0  0  0  0  0  0  0  0  0  0
   -3.6974   -0.4808    0.4764 C   0  0  1  0  0  0  0  0  0  0  0  0
   -4.8248   -1.3475    0.2514 O   0  0  0  0  0  0  0  0  0  0  0  0
   -4.6250   -2.6554    0.6001 C   0  0  0  0  0  0  0  0  0  0  0  0
   -5.7814   -3.4226    0.7561 C   0  0  0  0  0  0  0  0  0  0  0  0
   -5.6712   -4.7598    1.1197 C   0  0  0  0  0  0  0  0  0  0  0  0
   -6.7743   -5.5430    1.2921 O   0  0  0  0  0  0  0  0  0  0  0  0
   -4.4272   -5.3422    1.3283 C   0  0  0  0  0  0  0  0  0  0  0  0
   -3.2809   -4.5707    1.1534 C   0  0  0  0  0  0  0  0  0  0  0  0
   -2.0445   -5.1132    1.3738 O   0  0  0  0  0  0  0  0  0  0  0  0
   -3.3593   -3.2262    0.7689 C   0  0  0  0  0  0  0  0  0  0  0  0
   -2.1204   -2.4102    0.5455 C   0  0  2  0  0  0  0  0  0  0  0  0
   -1.4985   -2.1394    1.8143 O   0  0  0  0  0  0  0  0  0  0  0  0
   -2.4164   -1.0697   -0.1455 C   0  0  2  0  0  0  0  0  0  0  0  0
   -1.2848   -0.2016    0.0208 O   0  0  0  0  0  0  0  0  0  0  0  0
   -3.9967    1.2329   -1.4108 C   0  0  0  0  0  0  0  0  0  0  0  0
   -4.4174    2.4860   -1.8640 C   0  0  0  0  0  0  0  0  0  0  0  0
   -5.7105    5.1337   -0.7195 H   0  0  0  0  0  0  0  0  0  0  0  0
   -5.5518    3.7688    1.0772 H   0  0  0  0  0  0  0  0  0  0  0  0
   -4.8192    1.5683    1.8765 H   0  0  0  0  0  0  0  0  0  0  0  0
   -3.5490   -0.3717    1.5610 H   0  0  0  0  0  0  0  0  0  0  0  0
   -6.7500   -2.9578    0.5998 H   0  0  0  0  0  0  0  0  0  0  0  0
   -7.5665   -5.0096    1.1093 H   0  0  0  0  0  0  0  0  0  0  0  0
   -4.3738   -6.3845    1.6251 H   0  0  0  0  0  0  0  0  0  0  0  0
   -2.1536   -6.0618    1.5656 H   0  0  0  0  0  0  0  0  0  0  0  0
   -1.3892   -2.9596   -0.0596 H   0  0  0  0  0  0  0  0  0  0  0  0
   -1.3771   -3.0174    2.2268 H   0  0  0  0  0  0  0  0  0  0  0  0
   -2.5614   -1.2523   -1.2167 H   0  0  0  0  0  0  0  0  0  0  0  0
   -0.9582   -0.3810    0.9274 H   0  0  0  0  0  0  0  0  0  0  0  0
   -3.5771    0.5385   -2.1335 H   0  0  0  0  0  0  0  0  0  0  0  0
   -4.3142    2.7495   -2.9127 H   0  0  0  0  0  0  0  0  0  0  0  0
  1  2  1  0  0  0  0
  1 22  1  0  0  0  0
  2  3  1  0  0  0  0
  2 21  2  0  0  0  0
  3  4  2  0  0  0  0
  3 23  1  0  0  0  0
  4  5  1  0  0  0  0
  4 24  1  0  0  0  0
  5 20  2  0  0  0  0
  6  7  1  0  0  0  0
  6 18  1  0  0  0  0
  6  5  1  0  0  0  0
  6 25  1  1  0  0  0
  7  8  1  0  0  0  0
  8  9  1  0  0  0  0
  8 15  2  0  0  0  0
  9 10  2  0  0  0  0
  9 26  1  0  0  0  0
 10 11  1  0  0  0  0
 10 12  1  0  0  0  0
 11 27  1  0  0  0  0
 12 13  2  0  0  0  0
 12 28  1  0  0  0  0
 13 14  1  0  0  0  0
 13 15  1  0  0  0  0
 14 29  1  0  0  0  0
 15 16  1  0  0  0  0
 16 18  1  0  0  0  0
 16 17  1  0  0  0  0
 16 30  1  6  0  0  0
 17 31  1  0  0  0  0
 18 19  1  0  0  0  0
 18 32  1  6  0  0  0
 19 33  1  0  0  0  0
 20 21  1  0  0  0  0
 20 34  1  0  0  0  0
 21 35  1  0  0  0  0
M  END
$$$$
