CHEBI:10110
 OpenBabel04242411423D

 32 33  0  0  1  0  0  0  0  0999 V2000
   10.2895    5.7777   -1.7978 C   0  0  0  0  0  0  0  0  0  0  0  0
    9.4402    5.1527   -0.7401 C   0  0  0  0  0  0  0  0  0  0  0  0
    8.2127    4.6600   -0.9482 C   0  0  0  0  0  0  0  0  0  0  0  0
    7.4687    4.0560    0.0497 N   0  0  0  0  0  0  0  0  0  0  0  0
    6.1669    3.4355   -0.2147 C   0  0  1  0  0  0  0  0  0  0  0  0
    5.0071    4.0804    0.5391 C   0  0  0  0  0  0  0  0  0  0  0  0
    4.4195    5.0395   -0.4712 C   0  0  2  0  0  0  0  0  0  0  0  0
    2.9967    5.2463   -0.1833 N   0  0  0  0  0  0  0  0  0  0  0  0
    2.5310    6.3652   -0.4658 N   0  3  0  0  0  0  0  0  0  0  0  0
    2.1144    7.3895   -0.7359 N   0  5  0  0  0  0  0  0  0  0  0  0
    4.6276    4.2753   -1.7712 C   0  0  1  0  0  0  0  0  0  0  0  0
    4.7774    5.1886   -2.9860 C   0  0  0  0  0  0  0  0  0  0  0  0
    5.0234    4.4077   -4.1536 O   0  0  0  0  0  0  0  0  0  0  0  0
    5.8416    3.5074   -1.6169 O   0  0  0  0  0  0  0  0  0  0  0  0
    7.9862    3.8926    1.3311 C   0  0  0  0  0  0  0  0  0  0  0  0
    7.4037    3.2994    2.2364 O   0  0  0  0  0  0  0  0  0  0  0  0
    9.2196    4.4417    1.5515 N   0  0  0  0  0  0  0  0  0  0  0  0
   10.0096    5.0518    0.6223 C   0  0  0  0  0  0  0  0  0  0  0  0
   11.1247    5.4815    0.8948 O   0  0  0  0  0  0  0  0  0  0  0  0
    9.7820    5.7961   -2.7682 H   0  0  0  0  0  0  0  0  0  0  0  0
   11.2211    5.2157   -1.9224 H   0  0  0  0  0  0  0  0  0  0  0  0
   10.5381    6.8102   -1.5325 H   0  0  0  0  0  0  0  0  0  0  0  0
    7.7749    4.7036   -1.9406 H   0  0  0  0  0  0  0  0  0  0  0  0
    6.2519    2.3764    0.0569 H   0  0  0  0  0  0  0  0  0  0  0  0
    5.2828    4.5788    1.4729 H   0  0  0  0  0  0  0  0  0  0  0  0
    4.2715    3.3053    0.7928 H   0  0  0  0  0  0  0  0  0  0  0  0
    4.9888    5.9787   -0.4557 H   0  0  0  0  0  0  0  0  0  0  0  0
    3.8247    3.5496   -1.9521 H   0  0  0  0  0  0  0  0  0  0  0  0
    5.6275    5.8681   -2.8662 H   0  0  0  0  0  0  0  0  0  0  0  0
    3.8742    5.7820   -3.1541 H   0  0  0  0  0  0  0  0  0  0  0  0
    5.6690    3.7227   -3.8922 H   0  0  0  0  0  0  0  0  0  0  0  0
    9.6043    4.3349    2.4770 H   0  0  0  0  0  0  0  0  0  0  0  0
  1  2  1  0  0  0  0
  1 20  1  0  0  0  0
  1 21  1  0  0  0  0
  1 22  1  0  0  0  0
  2  3  2  0  0  0  0
  2 18  1  0  0  0  0
  3  4  1  0  0  0  0
  3 23  1  0  0  0  0
  4 15  1  0  0  0  0
  5  6  1  0  0  0  0
  5 14  1  0  0  0  0
  5  4  1  0  0  0  0
  5 24  1  1  0  0  0
  6  7  1  0  0  0  0
  6 25  1  0  0  0  0
  6 26  1  0  0  0  0
  7 11  1  0  0  0  0
  7  8  1  0  0  0  0
  7 27  1  6  0  0  0
  8  9  2  0  0  0  0
  9 10  2  0  0  0  0
 11 12  1  0  0  0  0
 11 14  1  0  0  0  0
 11 28  1  6  0  0  0
 12 13  1  0  0  0  0
 12 29  1  0  0  0  0
 12 30  1  0  0  0  0
 13 31  1  0  0  0  0
 15 16  2  0  0  0  0
 15 17  1  0  0  0  0
 17 18  1  0  0  0  0
 17 32  1  0  0  0  0
 18 19  2  0  0  0  0
M  CHG  2   9   1  10  -1
M  END
$$$$
