CHEBI:15530
 OpenBabel04242412373D

133135  0  0  1  0  0  0  0  0999 V2000
  -14.6320   33.3324    6.8328 C   0  0  0  0  0  0  0  0  0  0  0  0
  -14.8491   33.5738    8.3200 C   0  0  0  0  0  0  0  0  0  0  0  0
  -15.4725   32.3540    8.9995 C   0  0  0  0  0  0  0  0  0  0  0  0
  -15.4524   32.4219   10.5311 C   0  0  0  0  0  0  0  0  0  0  0  0
  -16.1508   33.6253   11.1731 C   0  0  0  0  0  0  0  0  0  0  0  0
  -17.6148   33.7407   10.8530 C   0  0  0  0  0  0  0  0  0  0  0  0
  -18.6468   33.2962   11.5917 C   0  0  0  0  0  0  0  0  0  0  0  0
  -18.5715   32.5034   12.8632 C   0  0  0  0  0  0  0  0  0  0  0  0
  -19.5255   32.9469   13.9363 C   0  0  0  0  0  0  0  0  0  0  0  0
  -19.6836   34.1392   14.5341 C   0  0  0  0  0  0  0  0  0  0  0  0
  -18.9411   35.4308   14.3243 C   0  0  0  0  0  0  0  0  0  0  0  0
  -18.2500   35.8353   15.6319 C   0  0  0  0  0  0  0  0  0  0  0  0
  -17.7537   37.2804   15.6422 C   0  0  0  0  0  0  0  0  0  0  0  0
  -17.3201   37.7755   17.0319 C   0  0  0  0  0  0  0  0  0  0  0  0
  -16.0044   37.2018   17.5736 C   0  0  0  0  0  0  0  0  0  0  0  0
  -16.1223   35.8161   18.2190 C   0  0  0  0  0  0  0  0  0  0  0  0
  -14.8102   35.3997   18.8843 C   0  0  0  0  0  0  0  0  0  0  0  0
  -14.6619   33.9257   19.2178 C   0  0  0  0  0  0  0  0  0  0  0  0
  -13.5599   33.3829   19.2029 O   0  0  0  0  0  0  0  0  0  0  0  0
  -16.0820   33.1032   19.8622 S   0  0  0  0  0  0  0  0  0  0  0  0
  -15.5422   31.3561   19.8109 C   0  0  0  0  0  0  0  0  0  0  0  0
  -16.0719   30.6182   18.5773 C   0  0  0  0  0  0  0  0  0  0  0  0
  -15.6114   31.1816   17.3238 N   0  0  0  0  0  0  0  0  0  0  0  0
  -14.3730   30.8751   16.7993 C   0  0  0  0  0  0  0  0  0  0  0  0
  -13.6155   30.0491   17.2959 O   0  0  0  0  0  0  0  0  0  0  0  0
  -14.0508   31.6839   15.5620 C   0  0  0  0  0  0  0  0  0  0  0  0
  -12.8529   31.1282   14.8062 C   0  0  0  0  0  0  0  0  0  0  0  0
  -11.5796   31.4034   15.4387 N   0  0  0  0  0  0  0  0  0  0  0  0
  -10.9652   32.6397   15.3584 C   0  0  0  0  0  0  0  0  0  0  0  0
  -11.4614   33.5845   14.7551 O   0  0  0  0  0  0  0  0  0  0  0  0
   -9.5532   32.6447   15.9938 C   0  0  2  0  0  0  0  0  0  0  0  0
   -9.5427   31.7547   17.1181 O   0  0  0  0  0  0  0  0  0  0  0  0
   -8.9801   34.0218   16.4283 C   0  0  0  0  0  0  0  0  0  0  0  0
   -7.5380   33.7996   16.9548 C   0  0  0  0  0  0  0  0  0  0  0  0
   -8.8768   35.0090   15.2498 C   0  0  0  0  0  0  0  0  0  0  0  0
   -9.8528   34.6304   17.5471 C   0  0  0  0  0  0  0  0  0  0  0  0
   -9.2001   35.7427   18.1467 O   0  0  0  0  0  0  0  0  0  0  0  0
   -9.8659   36.4121   19.4460 P   0  0  0  0  0  0  0  0  0  0  0  0
   -8.9773   37.3600   20.1800 O   0  0  0  0  0  0  0  0  0  0  0  0
  -11.1434   37.1580   18.8282 O   0  0  0  0  0  0  0  0  0  0  0  0
  -10.4853   35.2272   20.2923 O   0  0  0  0  0  0  0  0  0  0  0  0
  -11.0442   35.4108   21.7607 P   0  0  0  0  0  0  0  0  0  0  0  0
  -11.9474   36.5753   21.9954 O   0  0  0  0  0  0  0  0  0  0  0  0
  -11.7831   34.0080   22.0023 O   0  0  0  0  0  0  0  0  0  0  0  0
   -9.7434   35.3106   22.6992 O   0  0  0  0  0  0  0  0  0  0  0  0
   -9.9666   35.2931   24.0981 C   0  0  0  0  0  0  0  0  0  0  0  0
   -8.7263   34.8323   24.8664 C   0  0  1  0  0  0  0  0  0  0  0  0
   -8.4276   33.4414   24.5390 O   0  0  0  0  0  0  0  0  0  0  0  0
   -7.0491   33.4059   24.1142 C   0  0  1  0  0  0  0  0  0  0  0  0
   -6.7863   32.2717   23.2594 N   0  0  0  0  0  0  0  0  0  0  0  0
   -5.8025   31.3452   23.5158 C   0  0  0  0  0  0  0  0  0  0  0  0
   -5.7583   30.3991   22.6051 N   0  0  0  0  0  0  0  0  0  0  0  0
   -6.7610   30.7295   21.7194 C   0  0  0  0  0  0  0  0  0  0  0  0
   -7.2263   30.0924   20.5581 C   0  0  0  0  0  0  0  0  0  0  0  0
   -6.6800   28.9068   20.0727 N   0  0  0  0  0  0  0  0  0  0  0  0
   -8.2762   30.6300   19.9046 N   0  0  0  0  0  0  0  0  0  0  0  0
   -8.8022   31.7821   20.3825 C   0  0  0  0  0  0  0  0  0  0  0  0
   -8.4149   32.5056   21.4558 N   0  0  0  0  0  0  0  0  0  0  0  0
   -7.4030   31.9010   22.0983 C   0  0  0  0  0  0  0  0  0  0  0  0
   -6.7589   34.7828   23.5246 C   0  0  2  0  0  0  0  0  0  0  0  0
   -5.3667   35.0743   23.4044 O   0  0  0  0  0  0  0  0  0  0  0  0
   -7.4457   35.6340   24.5879 C   0  0  2  0  0  0  0  0  0  0  0  0
   -6.6699   35.5683   25.7928 O   0  0  0  0  0  0  0  0  0  0  0  0
   -5.9895   36.8629   26.4216 P   0  0  0  0  0  0  0  0  0  0  0  0
   -5.3342   36.6706   27.7442 O   0  0  0  0  0  0  0  0  0  0  0  0
   -5.0104   37.4203   25.2985 O   0  0  0  0  0  0  0  0  0  0  0  0
   -7.1523   37.9549   26.4537 O   0  0  0  0  0  0  0  0  0  0  0  0
  -14.1896   34.2176    6.3649 H   0  0  0  0  0  0  0  0  0  0  0  0
  -15.5773   33.1149    6.3258 H   0  0  0  0  0  0  0  0  0  0  0  0
  -13.9521   32.4898    6.6683 H   0  0  0  0  0  0  0  0  0  0  0  0
  -15.4998   34.4462    8.4457 H   0  0  0  0  0  0  0  0  0  0  0  0
  -13.8861   33.8137    8.7849 H   0  0  0  0  0  0  0  0  0  0  0  0
  -14.9182   31.4548    8.7004 H   0  0  0  0  0  0  0  0  0  0  0  0
  -16.4993   32.2158    8.6409 H   0  0  0  0  0  0  0  0  0  0  0  0
  -14.4061   32.4205   10.8633 H   0  0  0  0  0  0  0  0  0  0  0  0
  -15.8958   31.4971   10.9220 H   0  0  0  0  0  0  0  0  0  0  0  0
  -15.6563   34.5541   10.8654 H   0  0  0  0  0  0  0  0  0  0  0  0
  -16.0028   33.5726   12.2577 H   0  0  0  0  0  0  0  0  0  0  0  0
  -17.8465   34.2620    9.9245 H   0  0  0  0  0  0  0  0  0  0  0  0
  -19.6520   33.4702   11.2080 H   0  0  0  0  0  0  0  0  0  0  0  0
  -17.5617   32.4404   13.2775 H   0  0  0  0  0  0  0  0  0  0  0  0
  -18.8490   31.4735   12.5982 H   0  0  0  0  0  0  0  0  0  0  0  0
  -20.1722   32.1449   14.2958 H   0  0  0  0  0  0  0  0  0  0  0  0
  -20.4582   34.1968   15.3009 H   0  0  0  0  0  0  0  0  0  0  0  0
  -19.6680   36.1964   14.0287 H   0  0  0  0  0  0  0  0  0  0  0  0
  -18.1998   35.3579   13.5233 H   0  0  0  0  0  0  0  0  0  0  0  0
  -17.4050   35.1564   15.7676 H   0  0  0  0  0  0  0  0  0  0  0  0
  -18.9318   35.6913   16.4797 H   0  0  0  0  0  0  0  0  0  0  0  0
  -18.5676   37.9344   15.3027 H   0  0  0  0  0  0  0  0  0  0  0  0
  -16.9333   37.4047   14.9261 H   0  0  0  0  0  0  0  0  0  0  0  0
  -18.1278   37.6227   17.7581 H   0  0  0  0  0  0  0  0  0  0  0  0
  -17.1881   38.8634   16.9537 H   0  0  0  0  0  0  0  0  0  0  0  0
  -15.6339   37.8966   18.3394 H   0  0  0  0  0  0  0  0  0  0  0  0
  -15.2505   37.1861   16.7779 H   0  0  0  0  0  0  0  0  0  0  0  0
  -16.3852   35.0646   17.4750 H   0  0  0  0  0  0  0  0  0  0  0  0
  -16.9272   35.8309   18.9634 H   0  0  0  0  0  0  0  0  0  0  0  0
  -14.6566   35.9678   19.8086 H   0  0  0  0  0  0  0  0  0  0  0  0
  -13.9806   35.6435   18.2076 H   0  0  0  0  0  0  0  0  0  0  0  0
  -15.9546   30.8721   20.7030 H   0  0  0  0  0  0  0  0  0  0  0  0
  -14.4546   31.2693   19.8831 H   0  0  0  0  0  0  0  0  0  0  0  0
  -17.1675   30.6282   18.5558 H   0  0  0  0  0  0  0  0  0  0  0  0
  -15.7575   29.5686   18.6252 H   0  0  0  0  0  0  0  0  0  0  0  0
  -16.1628   31.9166   16.8990 H   0  0  0  0  0  0  0  0  0  0  0  0
  -13.8857   32.7235   15.8652 H   0  0  0  0  0  0  0  0  0  0  0  0
  -14.9258   31.6525   14.9016 H   0  0  0  0  0  0  0  0  0  0  0  0
  -12.8269   31.5706   13.8037 H   0  0  0  0  0  0  0  0  0  0  0  0
  -12.9257   30.0414   14.6901 H   0  0  0  0  0  0  0  0  0  0  0  0
  -11.3204   30.8307   16.2397 H   0  0  0  0  0  0  0  0  0  0  0  0
   -8.8891   32.2133   15.2319 H   0  0  0  0  0  0  0  0  0  0  0  0
   -9.1407   30.9141   16.8328 H   0  0  0  0  0  0  0  0  0  0  0  0
   -6.9179   33.3092   16.1950 H   0  0  0  0  0  0  0  0  0  0  0  0
   -7.5247   33.1730   17.8523 H   0  0  0  0  0  0  0  0  0  0  0  0
   -7.0468   34.7457   17.2091 H   0  0  0  0  0  0  0  0  0  0  0  0
   -9.8573   35.3584   14.9149 H   0  0  0  0  0  0  0  0  0  0  0  0
   -8.3696   34.5498   14.3943 H   0  0  0  0  0  0  0  0  0  0  0  0
   -8.3087   35.9036   15.5301 H   0  0  0  0  0  0  0  0  0  0  0  0
  -10.0382   33.8828   18.3221 H   0  0  0  0  0  0  0  0  0  0  0  0
  -10.8238   34.9567   17.1598 H   0  0  0  0  0  0  0  0  0  0  0  0
  -10.9542   38.1120   18.7426 H   0  0  0  0  0  0  0  0  0  0  0  0
  -12.5703   33.9107   21.4338 H   0  0  0  0  0  0  0  0  0  0  0  0
  -10.7948   34.6116   24.3197 H   0  0  0  0  0  0  0  0  0  0  0  0
  -10.2501   36.3021   24.4153 H   0  0  0  0  0  0  0  0  0  0  0  0
   -8.9653   34.8506   25.9367 H   0  0  0  0  0  0  0  0  0  0  0  0
   -6.4399   33.2447   25.0142 H   0  0  0  0  0  0  0  0  0  0  0  0
   -5.1548   31.4090   24.3820 H   0  0  0  0  0  0  0  0  0  0  0  0
   -6.1688   28.4020   20.7902 H   0  0  0  0  0  0  0  0  0  0  0  0
   -7.3640   28.3823   19.5436 H   0  0  0  0  0  0  0  0  0  0  0  0
   -9.6521   32.1708   19.8297 H   0  0  0  0  0  0  0  0  0  0  0  0
   -7.2391   34.9274   22.5501 H   0  0  0  0  0  0  0  0  0  0  0  0
   -5.1324   34.9259   22.4680 H   0  0  0  0  0  0  0  0  0  0  0  0
   -7.6103   36.6726   24.2886 H   0  0  0  0  0  0  0  0  0  0  0  0
   -4.2009   36.8777   25.2445 H   0  0  0  0  0  0  0  0  0  0  0  0
   -6.9007   38.6884   27.0444 H   0  0  0  0  0  0  0  0  0  0  0  0
  1  2  1  0  0  0  0
  1 68  1  0  0  0  0
  1 69  1  0  0  0  0
  1 70  1  0  0  0  0
  2  3  1  0  0  0  0
  2 71  1  0  0  0  0
  2 72  1  0  0  0  0
  3  4  1  0  0  0  0
  3 73  1  0  0  0  0
  3 74  1  0  0  0  0
  4  5  1  0  0  0  0
  4 75  1  0  0  0  0
  4 76  1  0  0  0  0
  5  6  1  0  0  0  0
  5 77  1  0  0  0  0
  5 78  1  0  0  0  0
  6  7  2  0  0  0  0
  6 79  1  0  0  0  0
  7  8  1  0  0  0  0
  7 80  1  0  0  0  0
  8  9  1  0  0  0  0
  8 81  1  0  0  0  0
  8 82  1  0  0  0  0
  9 10  2  0  0  0  0
  9 83  1  0  0  0  0
 10 11  1  0  0  0  0
 10 84  1  0  0  0  0
 11 12  1  0  0  0  0
 11 85  1  0  0  0  0
 11 86  1  0  0  0  0
 12 13  1  0  0  0  0
 12 87  1  0  0  0  0
 12 88  1  0  0  0  0
 13 14  1  0  0  0  0
 13 89  1  0  0  0  0
 13 90  1  0  0  0  0
 14 15  1  0  0  0  0
 14 91  1  0  0  0  0
 14 92  1  0  0  0  0
 15 16  1  0  0  0  0
 15 93  1  0  0  0  0
 15 94  1  0  0  0  0
 16 17  1  0  0  0  0
 16 95  1  0  0  0  0
 16 96  1  0  0  0  0
 17 18  1  0  0  0  0
 17 97  1  0  0  0  0
 17 98  1  0  0  0  0
 18 19  2  0  0  0  0
 18 20  1  0  0  0  0
 20 21  1  0  0  0  0
 21 22  1  0  0  0  0
 21 99  1  0  0  0  0
 21100  1  0  0  0  0
 22 23  1  0  0  0  0
 22101  1  0  0  0  0
 22102  1  0  0  0  0
 23 24  1  0  0  0  0
 23103  1  0  0  0  0
 24 25  2  0  0  0  0
 24 26  1  0  0  0  0
 26 27  1  0  0  0  0
 26104  1  0  0  0  0
 26105  1  0  0  0  0
 27 28  1  0  0  0  0
 27106  1  0  0  0  0
 27107  1  0  0  0  0
 28 29  1  0  0  0  0
 28108  1  0  0  0  0
 29 30  2  0  0  0  0
 31 33  1  0  0  0  0
 31 32  1  0  0  0  0
 31 29  1  0  0  0  0
 31109  1  6  0  0  0
 32110  1  0  0  0  0
 33 34  1  0  0  0  0
 33 35  1  0  0  0  0
 33 36  1  0  0  0  0
 34111  1  0  0  0  0
 34112  1  0  0  0  0
 34113  1  0  0  0  0
 35114  1  0  0  0  0
 35115  1  0  0  0  0
 35116  1  0  0  0  0
 36 37  1  0  0  0  0
 36117  1  0  0  0  0
 36118  1  0  0  0  0
 37 38  1  0  0  0  0
 38 39  2  0  0  0  0
 38 40  1  0  0  0  0
 38 41  1  0  0  0  0
 40119  1  0  0  0  0
 41 42  1  0  0  0  0
 42 43  2  0  0  0  0
 42 44  1  0  0  0  0
 42 45  1  0  0  0  0
 44120  1  0  0  0  0
 45 46  1  0  0  0  0
 46121  1  0  0  0  0
 46122  1  0  0  0  0
 47 48  1  0  0  0  0
 47 62  1  0  0  0  0
 47 46  1  0  0  0  0
 47123  1  1  0  0  0
 48 49  1  0  0  0  0
 49 60  1  0  0  0  0
 49 50  1  0  0  0  0
 49124  1  1  0  0  0
 50 51  1  0  0  0  0
 50 59  1  0  0  0  0
 51 52  2  0  0  0  0
 51125  1  0  0  0  0
 52 53  1  0  0  0  0
 53 54  1  0  0  0  0
 53 59  2  0  0  0  0
 54 55  1  0  0  0  0
 54 56  2  0  0  0  0
 55126  1  0  0  0  0
 55127  1  0  0  0  0
 56 57  1  0  0  0  0
 57 58  2  0  0  0  0
 57128  1  0  0  0  0
 58 59  1  0  0  0  0
 60 61  1  0  0  0  0
 60 62  1  0  0  0  0
 60129  1  6  0  0  0
 61130  1  0  0  0  0
 62 63  1  0  0  0  0
 62131  1  6  0  0  0
 63 64  1  0  0  0  0
 64 65  2  0  0  0  0
 64 66  1  0  0  0  0
 64 67  1  0  0  0  0
 66132  1  0  0  0  0
 67133  1  0  0  0  0
M  END
$$$$
