CHEBI:3743
 OpenBabel04242410543D

 52 55  0  0  1  0  0  0  0  0999 V2000
    2.2587    3.1383   -4.3614 C   0  0  0  0  0  0  0  0  0  0  0  0
    2.6672    1.7338   -4.7651 N   0  3  2  0  0  0  0  0  0  0  0  0
    2.3076    1.4944   -6.2432 C   0  0  0  0  0  0  0  0  0  0  0  0
    2.5423    0.0212   -6.5731 C   0  0  0  0  0  0  0  0  0  0  0  0
    3.3766   -0.6479   -5.4680 C   0  0  2  0  0  0  0  0  0  0  0  0
    2.5123   -0.6918   -4.2005 C   0  0  0  0  0  0  0  0  0  0  0  0
    1.9453    0.6977   -3.8909 C   0  0  0  0  0  0  0  0  0  0  0  0
    4.6340    0.2058   -5.1818 C   0  0  0  0  0  0  0  0  0  0  0  0
    5.3243    0.4771   -6.4154 O   0  0  0  0  0  0  0  0  0  0  0  0
    6.1617   -0.5104   -6.8773 C   0  0  0  0  0  0  0  0  0  0  0  0
    6.4004   -1.5290   -6.2377 O   0  0  0  0  0  0  0  0  0  0  0  0
    6.6339   -0.1863   -8.3437 C   0  0  0  0  0  0  0  0  0  0  0  0
    6.9294    1.2281   -8.4039 O   0  0  0  0  0  0  0  0  0  0  0  0
    7.9362   -0.9209   -8.7107 C   0  0  0  0  0  0  0  0  0  0  0  0
    8.1192   -1.5638   -9.9485 C   0  0  0  0  0  0  0  0  0  0  0  0
    9.3307   -2.1833  -10.2690 C   0  0  0  0  0  0  0  0  0  0  0  0
   10.3939   -2.1500   -9.3725 C   0  0  0  0  0  0  0  0  0  0  0  0
   10.2488   -1.4978   -8.1529 C   0  0  0  0  0  0  0  0  0  0  0  0
    9.0349   -0.8891   -7.8250 C   0  0  0  0  0  0  0  0  0  0  0  0
    5.4317   -0.4725   -9.2656 C   0  0  0  0  0  0  0  0  0  0  0  0
    4.8814    0.5211  -10.0957 C   0  0  0  0  0  0  0  0  0  0  0  0
    3.7649    0.2543  -10.8914 C   0  0  0  0  0  0  0  0  0  0  0  0
    3.1815   -1.0098  -10.8767 C   0  0  0  0  0  0  0  0  0  0  0  0
    3.7162   -2.0126  -10.0724 C   0  0  0  0  0  0  0  0  0  0  0  0
    4.8313   -1.7491   -9.2745 C   0  0  0  0  0  0  0  0  0  0  0  0
    4.1964    1.5601   -4.5849 C   0  0  0  0  0  0  0  0  0  0  0  0
    1.1743    3.2282   -4.4727 H   0  0  0  0  0  0  0  0  0  0  0  0
    2.7710    3.8493   -5.0160 H   0  0  0  0  0  0  0  0  0  0  0  0
    2.5513    3.2972   -3.3196 H   0  0  0  0  0  0  0  0  0  0  0  0
    2.9431    2.1546   -6.8445 H   0  0  0  0  0  0  0  0  0  0  0  0
    1.2582    1.7732   -6.3884 H   0  0  0  0  0  0  0  0  0  0  0  0
    3.0298   -0.0594   -7.5477 H   0  0  0  0  0  0  0  0  0  0  0  0
    1.5792   -0.4941   -6.6781 H   0  0  0  0  0  0  0  0  0  0  0  0
    3.6560   -1.6596   -5.7809 H   0  0  0  0  0  0  0  0  0  0  0  0
    3.1054   -1.0518   -3.3511 H   0  0  0  0  0  0  0  0  0  0  0  0
    1.6857   -1.4023   -4.3219 H   0  0  0  0  0  0  0  0  0  0  0  0
    2.1015    0.9680   -2.8408 H   0  0  0  0  0  0  0  0  0  0  0  0
    0.8765    0.7618   -4.1246 H   0  0  0  0  0  0  0  0  0  0  0  0
    5.3092   -0.2858   -4.4707 H   0  0  0  0  0  0  0  0  0  0  0  0
    7.8901    1.3252   -8.5238 H   0  0  0  0  0  0  0  0  0  0  0  0
    7.3270   -1.5964  -10.6942 H   0  0  0  0  0  0  0  0  0  0  0  0
    9.4450   -2.6883  -11.2257 H   0  0  0  0  0  0  0  0  0  0  0  0
   11.3363   -2.6287   -9.6273 H   0  0  0  0  0  0  0  0  0  0  0  0
   11.0829   -1.4637   -7.4558 H   0  0  0  0  0  0  0  0  0  0  0  0
    8.9617   -0.3861   -6.8623 H   0  0  0  0  0  0  0  0  0  0  0  0
    5.3192    1.5172  -10.1347 H   0  0  0  0  0  0  0  0  0  0  0  0
    3.3580    1.0324  -11.5334 H   0  0  0  0  0  0  0  0  0  0  0  0
    2.3194   -1.2185  -11.5061 H   0  0  0  0  0  0  0  0  0  0  0  0
    3.2716   -3.0054  -10.0752 H   0  0  0  0  0  0  0  0  0  0  0  0
    5.2365   -2.5569   -8.6644 H   0  0  0  0  0  0  0  0  0  0  0  0
    4.6873    2.4104   -5.0713 H   0  0  0  0  0  0  0  0  0  0  0  0
    4.3837    1.5972   -3.5056 H   0  0  0  0  0  0  0  0  0  0  0  0
  1 27  1  0  0  0  0
  1 28  1  0  0  0  0
  1 29  1  0  0  0  0
  2  1  1  1  0  0  0
  2  3  1  0  0  0  0
  2  7  1  0  0  0  0
  2 26  1  0  0  0  0
  3  4  1  0  0  0  0
  3 30  1  0  0  0  0
  3 31  1  0  0  0  0
  4  5  1  0  0  0  0
  4 32  1  0  0  0  0
  4 33  1  0  0  0  0
  5  6  1  0  0  0  0
  5  8  1  0  0  0  0
  5 34  1  6  0  0  0
  6  7  1  0  0  0  0
  6 35  1  0  0  0  0
  6 36  1  0  0  0  0
  7 37  1  0  0  0  0
  7 38  1  0  0  0  0
  8  9  1  0  0  0  0
  8 26  1  0  0  0  0
  8 39  1  0  0  0  0
  9 10  1  0  0  0  0
 10 11  2  0  0  0  0
 10 12  1  0  0  0  0
 12 13  1  0  0  0  0
 12 14  1  0  0  0  0
 12 20  1  0  0  0  0
 13 40  1  0  0  0  0
 14 15  1  0  0  0  0
 14 19  2  0  0  0  0
 15 16  2  0  0  0  0
 15 41  1  0  0  0  0
 16 17  1  0  0  0  0
 16 42  1  0  0  0  0
 17 18  2  0  0  0  0
 17 43  1  0  0  0  0
 18 19  1  0  0  0  0
 18 44  1  0  0  0  0
 19 45  1  0  0  0  0
 20 21  1  0  0  0  0
 20 25  2  0  0  0  0
 21 22  2  0  0  0  0
 21 46  1  0  0  0  0
 22 23  1  0  0  0  0
 22 47  1  0  0  0  0
 23 24  2  0  0  0  0
 23 48  1  0  0  0  0
 24 25  1  0  0  0  0
 24 49  1  0  0  0  0
 25 50  1  0  0  0  0
 26 51  1  0  0  0  0
 26 52  1  0  0  0  0
M  CHG  1   2   1
M  END
$$$$
