CHEBI:18302
 OpenBabel04252409213D

 62 64  0  0  1  0  0  0  0  0999 V2000
    0.9214    0.3258   -2.7024 N   0  0  0  0  0  0  0  0  0  0  0  0
    1.8404    0.6981   -1.7604 C   0  0  0  0  0  0  0  0  0  0  0  0
    2.3709    1.8027   -1.7975 O   0  0  0  0  0  0  0  0  0  0  0  0
    2.0859   -0.3374   -0.7553 C   0  0  0  0  0  0  0  0  0  0  0  0
    1.3803   -1.5356   -0.7522 N   0  0  0  0  0  0  0  0  0  0  0  0
    1.8948   -2.2287    0.2345 C   0  0  0  0  0  0  0  0  0  0  0  0
    2.9051   -1.5523    0.8667 N   0  0  0  0  0  0  0  0  0  0  0  0
    3.7387   -2.1469    1.8965 C   0  0  2  0  0  0  0  0  0  0  0  0
    3.7811   -1.3050    3.0661 O   0  0  0  0  0  0  0  0  0  0  0  0
    5.1251   -1.3605    3.6040 C   0  0  2  0  0  0  0  0  0  0  0  0
    5.7781    0.0239    3.5231 C   0  0  0  0  0  0  0  0  0  0  0  0
    5.0982    0.9400    4.3705 O   0  0  0  0  0  0  0  0  0  0  0  0
    5.5642    1.0146    5.8951 P   0  0  0  0  0  0  0  0  0  0  0  0
    5.7815   -0.2787    6.5994 O   0  0  0  0  0  0  0  0  0  0  0  0
    6.8565    1.9497    5.8496 O   0  0  0  0  0  0  0  0  0  0  0  0
    4.4815    1.9714    6.5666 O   0  0  0  0  0  0  0  0  0  0  0  0
    5.8915   -2.4090    2.7991 C   0  0  1  0  0  0  0  0  0  0  0  0
    5.7200   -3.7205    3.3745 O   0  0  0  0  0  0  0  0  0  0  0  0
    5.1791   -2.4053    1.4580 C   0  0  1  0  0  0  0  0  0  0  0  0
    5.3468   -3.6575    0.7894 O   0  0  0  0  0  0  0  0  0  0  0  0
    3.0132   -0.3064    0.2869 C   0  0  0  0  0  0  0  0  0  0  0  0
    3.9234    0.6158    0.7018 N   0  0  0  0  0  0  0  0  0  0  0  0
    3.3919    1.7550    1.0091 C   0  0  0  0  0  0  0  0  0  0  0  0
    4.0991    2.8905    1.2829 N   0  0  0  0  0  0  0  0  0  0  0  0
    3.5521    4.1643    0.8873 C   0  0  2  0  0  0  0  0  0  0  0  0
    4.6402    5.0096    0.4771 O   0  0  0  0  0  0  0  0  0  0  0  0
    4.3365    6.3661    0.8964 C   0  0  2  0  0  0  0  0  0  0  0  0
    5.4497    6.8576    1.8229 C   0  0  0  0  0  0  0  0  0  0  0  0
    6.6626    7.0740    1.1182 O   0  0  0  0  0  0  0  0  0  0  0  0
    7.6296    5.8608    0.7286 P   0  0  0  0  0  0  0  0  0  0  0  0
    9.0683    6.2176    0.5730 O   0  0  0  0  0  0  0  0  0  0  0  0
    7.4399    4.7495    1.8600 O   0  0  0  0  0  0  0  0  0  0  0  0
    6.9880    5.1541   -0.5450 O   0  0  0  0  0  0  0  0  0  0  0  0
    2.9751    6.3309    1.5934 C   0  0  1  0  0  0  0  0  0  0  0  0
    1.9156    6.5754    0.6505 O   0  0  0  0  0  0  0  0  0  0  0  0
    2.8628    4.8862    2.0497 C   0  0  1  0  0  0  0  0  0  0  0  0
    1.5004    4.5125    2.2470 O   0  0  0  0  0  0  0  0  0  0  0  0
    0.7189    0.9440   -3.4711 H   0  0  0  0  0  0  0  0  0  0  0  0
    0.5236   -0.6049   -2.6534 H   0  0  0  0  0  0  0  0  0  0  0  0
    1.5922   -3.2279    0.5217 H   0  0  0  0  0  0  0  0  0  0  0  0
    3.2552   -3.0858    2.1967 H   0  0  0  0  0  0  0  0  0  0  0  0
    5.0175   -1.6710    4.6468 H   0  0  0  0  0  0  0  0  0  0  0  0
    5.7386    0.4248    2.5089 H   0  0  0  0  0  0  0  0  0  0  0  0
    6.8332   -0.0270    3.8149 H   0  0  0  0  0  0  0  0  0  0  0  0
    7.2416    2.0468    6.7382 H   0  0  0  0  0  0  0  0  0  0  0  0
    3.6155    1.5288    6.6352 H   0  0  0  0  0  0  0  0  0  0  0  0
    6.9675   -2.2305    2.7185 H   0  0  0  0  0  0  0  0  0  0  0  0
    6.1102   -3.7002    4.2693 H   0  0  0  0  0  0  0  0  0  0  0  0
    5.5672   -1.6081    0.8163 H   0  0  0  0  0  0  0  0  0  0  0  0
    5.4538   -4.3216    1.5037 H   0  0  0  0  0  0  0  0  0  0  0  0
    2.2961    1.9229    1.0233 H   0  0  0  0  0  0  0  0  0  0  0  0
    5.0870    2.7963    1.0845 H   0  0  0  0  0  0  0  0  0  0  0  0
    2.8788    4.0506    0.0282 H   0  0  0  0  0  0  0  0  0  0  0  0
    4.3113    6.9759   -0.0138 H   0  0  0  0  0  0  0  0  0  0  0  0
    5.6217    6.1701    2.6560 H   0  0  0  0  0  0  0  0  0  0  0  0
    5.1663    7.8260    2.2490 H   0  0  0  0  0  0  0  0  0  0  0  0
    8.3057    4.3360    2.0421 H   0  0  0  0  0  0  0  0  0  0  0  0
    6.0696    4.8597   -0.3634 H   0  0  0  0  0  0  0  0  0  0  0  0
    2.8569    7.0504    2.4089 H   0  0  0  0  0  0  0  0  0  0  0  0
    1.9611    7.5134    0.3866 H   0  0  0  0  0  0  0  0  0  0  0  0
    3.4115    4.7342    2.9866 H   0  0  0  0  0  0  0  0  0  0  0  0
    0.9999    4.9695    1.5391 H   0  0  0  0  0  0  0  0  0  0  0  0
  1  2  1  0  0  0  0
  1 38  1  0  0  0  0
  1 39  1  0  0  0  0
  2  3  2  0  0  0  0
  2  4  1  0  0  0  0
  4  5  1  0  0  0  0
  4 21  2  0  0  0  0
  5  6  2  0  0  0  0
  6  7  1  0  0  0  0
  6 40  1  0  0  0  0
  7  8  1  0  0  0  0
  7 21  1  0  0  0  0
  8  9  1  0  0  0  0
  8 19  1  0  0  0  0
  8 41  1  1  0  0  0
  9 10  1  0  0  0  0
 10 11  1  0  0  0  0
 10 17  1  0  0  0  0
 10 42  1  1  0  0  0
 11 12  1  0  0  0  0
 11 43  1  0  0  0  0
 11 44  1  0  0  0  0
 12 13  1  0  0  0  0
 13 14  2  0  0  0  0
 13 15  1  0  0  0  0
 13 16  1  0  0  0  0
 15 45  1  0  0  0  0
 16 46  1  0  0  0  0
 17 18  1  0  0  0  0
 17 19  1  0  0  0  0
 17 47  1  6  0  0  0
 18 48  1  0  0  0  0
 19 20  1  0  0  0  0
 19 49  1  6  0  0  0
 20 50  1  0  0  0  0
 21 22  1  0  0  0  0
 22 23  2  0  0  0  0
 23 24  1  0  0  0  0
 23 51  1  0  0  0  0
 24 25  1  0  0  0  0
 24 52  1  0  0  0  0
 25 26  1  0  0  0  0
 25 36  1  0  0  0  0
 25 53  1  6  0  0  0
 26 27  1  0  0  0  0
 27 28  1  0  0  0  0
 27 34  1  0  0  0  0
 27 54  1  6  0  0  0
 28 29  1  0  0  0  0
 28 55  1  0  0  0  0
 28 56  1  0  0  0  0
 29 30  1  0  0  0  0
 30 31  2  0  0  0  0
 30 32  1  0  0  0  0
 30 33  1  0  0  0  0
 32 57  1  0  0  0  0
 33 58  1  0  0  0  0
 34 35  1  0  0  0  0
 34 36  1  0  0  0  0
 34 59  1  1  0  0  0
 35 60  1  0  0  0  0
 36 37  1  0  0  0  0
 36 61  1  1  0  0  0
 37 62  1  0  0  0  0
M  END
$$$$
