CHEBI:3650
 OpenBabel04242410523D

 30 30  0  0  0  0  0  0  0  0999 V2000
    4.7644   -2.4753    3.1775 C   0  0  0  0  0  0  0  0  0  0  0  0
    4.1888   -1.5544    2.1110 C   0  0  0  0  0  0  0  0  0  0  0  0
    4.3441   -0.0791    2.4654 C   0  0  0  0  0  0  0  0  0  0  0  0
    5.7323    0.3327    2.4938 N   0  0  0  0  0  0  0  0  0  0  0  0
    6.1039    1.4951    3.1050 C   0  0  0  0  0  0  0  0  0  0  0  0
    5.3477    2.2052    3.7452 O   0  0  0  0  0  0  0  0  0  0  0  0
    7.4477    1.7675    2.9265 N   0  0  0  0  0  0  0  0  0  0  0  0
    8.2365    3.1009    3.5237 S   0  0  0  0  0  0  0  0  0  0  0  0
    9.6426    2.8549    3.2711 O   0  0  0  0  0  0  0  0  0  0  0  0
    7.5984    4.2998    3.0296 O   0  0  0  0  0  0  0  0  0  0  0  0
    7.9945    2.9874    5.2799 C   0  0  0  0  0  0  0  0  0  0  0  0
    8.8379    2.1696    6.0404 C   0  0  0  0  0  0  0  0  0  0  0  0
    8.6646    2.1018    7.4247 C   0  0  0  0  0  0  0  0  0  0  0  0
    7.6624    2.8560    8.0376 C   0  0  0  0  0  0  0  0  0  0  0  0
    7.4508    2.7655    9.7427 Cl  0  0  0  0  0  0  0  0  0  0  0  0
    6.8338    3.6844    7.2803 C   0  0  0  0  0  0  0  0  0  0  0  0
    7.0034    3.7580    5.8961 C   0  0  0  0  0  0  0  0  0  0  0  0
    4.5901   -3.5213    2.9061 H   0  0  0  0  0  0  0  0  0  0  0  0
    4.2928   -2.2939    4.1485 H   0  0  0  0  0  0  0  0  0  0  0  0
    5.8440   -2.3327    3.2870 H   0  0  0  0  0  0  0  0  0  0  0  0
    3.1230   -1.7794    1.9886 H   0  0  0  0  0  0  0  0  0  0  0  0
    4.6766   -1.7647    1.1519 H   0  0  0  0  0  0  0  0  0  0  0  0
    3.8802    0.1379    3.4344 H   0  0  0  0  0  0  0  0  0  0  0  0
    3.8414    0.5389    1.7130 H   0  0  0  0  0  0  0  0  0  0  0  0
    6.3511   -0.0329    1.7872 H   0  0  0  0  0  0  0  0  0  0  0  0
    8.0720    1.0927    2.5080 H   0  0  0  0  0  0  0  0  0  0  0  0
    9.6289    1.5915    5.5681 H   0  0  0  0  0  0  0  0  0  0  0  0
    9.3146    1.4657    8.0203 H   0  0  0  0  0  0  0  0  0  0  0  0
    6.0547    4.2728    7.7584 H   0  0  0  0  0  0  0  0  0  0  0  0
    6.3519    4.3999    5.3053 H   0  0  0  0  0  0  0  0  0  0  0  0
  1  2  1  0  0  0  0
  1 18  1  0  0  0  0
  1 19  1  0  0  0  0
  1 20  1  0  0  0  0
  2  3  1  0  0  0  0
  2 21  1  0  0  0  0
  2 22  1  0  0  0  0
  3  4  1  0  0  0  0
  3 23  1  0  0  0  0
  3 24  1  0  0  0  0
  4  5  1  0  0  0  0
  4 25  1  0  0  0  0
  5  6  2  0  0  0  0
  5  7  1  0  0  0  0
  7  8  1  0  0  0  0
  7 26  1  0  0  0  0
  8  9  2  0  0  0  0
  8 10  2  0  0  0  0
  8 11  1  0  0  0  0
 11 12  1  0  0  0  0
 11 17  2  0  0  0  0
 12 13  2  0  0  0  0
 12 27  1  0  0  0  0
 13 14  1  0  0  0  0
 13 28  1  0  0  0  0
 14 15  1  0  0  0  0
 14 16  2  0  0  0  0
 16 17  1  0  0  0  0
 16 29  1  0  0  0  0
 17 30  1  0  0  0  0
M  END
$$$$
