CHEBI:18189
 OpenBabel04242423423D

 25 25  0  0  1  0  0  0  0  0999 V2000
    4.0579    3.7301    0.6353 O   0  0  0  0  0  0  0  0  0  0  0  0
    4.6703    3.6310   -0.7183 P   0  0  0  0  0  0  0  0  0  0  0  0
    3.8632    4.3868   -1.8689 O   0  0  0  0  0  0  0  0  0  0  0  0
    6.1060    4.3094   -0.8615 O   0  0  0  0  0  0  0  0  0  0  0  0
    4.8741    2.1605   -1.3207 O   0  0  0  0  0  0  0  0  0  0  0  0
    5.3938    1.1464   -0.4708 C   0  0  0  0  0  0  0  0  0  0  0  0
    6.9164    1.2632   -0.3789 C   0  0  1  0  0  0  0  0  0  0  0  0
    7.2376    2.4088    0.4673 O   0  0  0  0  0  0  0  0  0  0  0  0
    8.0725    1.9370    1.5381 C   0  0  2  0  0  0  0  0  0  0  0  0
    9.4259    2.1479    1.1632 O   0  0  0  0  0  0  0  0  0  0  0  0
    7.7117    0.4595    1.7108 C   0  0  2  0  0  0  0  0  0  0  0  0
    8.6723   -0.3105    2.4166 O   0  0  0  0  0  0  0  0  0  0  0  0
    7.5759    0.0345    0.2587 C   0  0  2  0  0  0  0  0  0  0  0  0
    8.9064   -0.1416   -0.2737 O   0  0  0  0  0  0  0  0  0  0  0  0
    3.6972    5.3128   -1.6217 H   0  0  0  0  0  0  0  0  0  0  0  0
    6.7353    3.9149   -0.2160 H   0  0  0  0  0  0  0  0  0  0  0  0
    5.1148    0.1876   -0.9187 H   0  0  0  0  0  0  0  0  0  0  0  0
    4.9190    1.2152    0.5134 H   0  0  0  0  0  0  0  0  0  0  0  0
    7.3381    1.4784   -1.3672 H   0  0  0  0  0  0  0  0  0  0  0  0
    7.8777    2.5193    2.4428 H   0  0  0  0  0  0  0  0  0  0  0  0
    9.6556    1.4363    0.5353 H   0  0  0  0  0  0  0  0  0  0  0  0
    6.7429    0.3705    2.2154 H   0  0  0  0  0  0  0  0  0  0  0  0
    9.4768   -0.3209    1.8622 H   0  0  0  0  0  0  0  0  0  0  0  0
    7.0367   -0.9076    0.1268 H   0  0  0  0  0  0  0  0  0  0  0  0
    8.8111   -0.5394   -1.1607 H   0  0  0  0  0  0  0  0  0  0  0  0
  1  2  2  0  0  0  0
  2  3  1  0  0  0  0
  2  4  1  0  0  0  0
  2  5  1  0  0  0  0
  3 15  1  0  0  0  0
  4 16  1  0  0  0  0
  5  6  1  0  0  0  0
  6  7  1  0  0  0  0
  6 17  1  0  0  0  0
  6 18  1  0  0  0  0
  7  8  1  0  0  0  0
  7 13  1  0  0  0  0
  7 19  1  6  0  0  0
  8  9  1  0  0  0  0
  9 10  1  0  0  0  0
  9 11  1  0  0  0  0
  9 20  1  1  0  0  0
 10 21  1  0  0  0  0
 11 12  1  0  0  0  0
 11 13  1  0  0  0  0
 11 22  1  1  0  0  0
 12 23  1  0  0  0  0
 13 14  1  0  0  0  0
 13 24  1  6  0  0  0
 14 25  1  0  0  0  0
M  END
$$$$
