CHEBI:24367
 OpenBabel04252409403D

 31 31  0  0  1  0  0  0  0  0999 V2000
    1.1535   -5.9415    1.0599 N   0  0  0  0  0  0  0  0  0  0  0  0
   -0.0743   -5.4033    1.6353 C   0  0  0  0  0  0  0  0  0  0  0  0
    0.0659   -4.6323    2.9513 C   0  0  0  0  0  0  0  0  0  0  0  0
   -0.8393   -4.6736    3.7930 O   0  0  0  0  0  0  0  0  0  0  0  0
    1.1329   -3.7840    3.0650 N   0  0  0  0  0  0  0  0  0  0  0  0
    1.4168   -3.0947    4.2898 C   0  0  2  0  0  0  0  0  0  0  0  0
    2.3304   -2.0254    3.9868 O   0  0  0  0  0  0  0  0  0  0  0  0
    3.5906   -2.3099    4.6293 C   0  0  2  0  0  0  0  0  0  0  0  0
    4.5803   -2.9933    3.6841 C   0  0  0  0  0  0  0  0  0  0  0  0
    4.3331   -4.3805    3.6581 O   0  0  0  0  0  0  0  0  0  0  0  0
    4.2261   -5.0718    2.1872 P   0  0  0  0  0  0  0  0  0  0  0  0
    3.7359   -6.4690    2.5112 O   0  0  0  0  0  0  0  0  0  0  0  0
    3.1644   -4.2256    1.4948 O   0  5  0  0  0  0  0  0  0  0  0  0
    5.6296   -4.9424    1.6334 O   0  5  0  0  0  0  0  0  0  0  0  0
    3.2345   -3.1468    5.8529 C   0  0  1  0  0  0  0  0  0  0  0  0
    2.8173   -2.2761    6.9443 O   0  0  0  0  0  0  0  0  0  0  0  0
    2.0301   -3.9686    5.4040 C   0  0  1  0  0  0  0  0  0  0  0  0
    1.1469   -4.1593    6.5307 O   0  0  0  0  0  0  0  0  0  0  0  0
    1.7333   -6.4139    1.7840 H   0  0  0  0  0  0  0  0  0  0  0  0
    1.8365   -5.1609    0.9015 H   0  0  0  0  0  0  0  0  0  0  0  0
   -0.7546   -6.2421    1.8183 H   0  0  0  0  0  0  0  0  0  0  0  0
   -0.5528   -4.7374    0.9096 H   0  0  0  0  0  0  0  0  0  0  0  0
    1.9369   -3.9368    2.4233 H   0  0  0  0  0  0  0  0  0  0  0  0
    0.4849   -2.6345    4.6388 H   0  0  0  0  0  0  0  0  0  0  0  0
    4.0043   -1.3354    4.9114 H   0  0  0  0  0  0  0  0  0  0  0  0
    5.5973   -2.8614    4.0680 H   0  0  0  0  0  0  0  0  0  0  0  0
    4.5347   -2.5409    2.6881 H   0  0  0  0  0  0  0  0  0  0  0  0
    4.0546   -3.7592    6.2392 H   0  0  0  0  0  0  0  0  0  0  0  0
    3.5778   -1.6949    7.1161 H   0  0  0  0  0  0  0  0  0  0  0  0
    2.3127   -4.9570    5.0298 H   0  0  0  0  0  0  0  0  0  0  0  0
    1.2816   -3.3494    7.0621 H   0  0  0  0  0  0  0  0  0  0  0  0
  1  2  1  0  0  0  0
  1 19  1  0  0  0  0
  1 20  1  0  0  0  0
  2  3  1  0  0  0  0
  2 21  1  0  0  0  0
  2 22  1  0  0  0  0
  3  4  2  0  0  0  0
  3  5  1  0  0  0  0
  5  6  1  0  0  0  0
  5 23  1  0  0  0  0
  6  7  1  0  0  0  0
  6 17  1  0  0  0  0
  6 24  1  1  0  0  0
  7  8  1  0  0  0  0
  8  9  1  0  0  0  0
  8 15  1  0  0  0  0
  8 25  1  1  0  0  0
  9 10  1  0  0  0  0
  9 26  1  0  0  0  0
  9 27  1  0  0  0  0
 10 11  1  0  0  0  0
 11 12  2  0  0  0  0
 11 13  1  0  0  0  0
 11 14  1  0  0  0  0
 15 16  1  0  0  0  0
 15 17  1  0  0  0  0
 15 28  1  1  0  0  0
 16 29  1  0  0  0  0
 17 18  1  0  0  0  0
 17 30  1  6  0  0  0
 18 31  1  0  0  0  0
M  CHG  2  13  -1  14  -1
M  END
$$$$
