CHEBI:16895
 OpenBabel04242415303D

 23 22  0  0  1  0  0  0  0  0999 V2000
    5.4094    0.4908   -1.1261 C   0  0  0  0  0  0  0  0  0  0  0  0
    6.0407   -1.0618   -0.4404 S   0  0  0  0  0  0  0  0  0  0  0  0
    5.3411   -0.9481    1.2519 C   0  0  0  0  0  0  0  0  0  0  0  0
    3.8293   -1.2341    1.2696 C   0  0  1  0  0  0  0  0  0  0  0  0
    3.5894   -2.5441    0.7448 O   0  0  0  0  0  0  0  0  0  0  0  0
    3.2741   -1.1569    2.7073 C   0  0  1  0  0  0  0  0  0  0  0  0
    3.5480    0.1462    3.2505 O   0  0  0  0  0  0  0  0  0  0  0  0
    1.7606   -1.3997    2.8051 C   0  0  1  0  0  0  0  0  0  0  0  0
    1.0705   -0.3735    2.0845 O   0  0  0  0  0  0  0  0  0  0  0  0
    1.3417   -2.7910    2.3605 C   0  0  0  0  0  0  0  0  0  0  0  0
    0.2896   -2.9887    1.7525 O   0  0  0  0  0  0  0  0  0  0  0  0
    4.3304    0.4287   -1.2855 H   0  0  0  0  0  0  0  0  0  0  0  0
    5.8891    0.6745   -2.0912 H   0  0  0  0  0  0  0  0  0  0  0  0
    5.6390    1.3277   -0.4616 H   0  0  0  0  0  0  0  0  0  0  0  0
    5.5830    0.0324    1.6724 H   0  0  0  0  0  0  0  0  0  0  0  0
    5.8632   -1.7074    1.8446 H   0  0  0  0  0  0  0  0  0  0  0  0
    3.3069   -0.5064    0.6383 H   0  0  0  0  0  0  0  0  0  0  0  0
    4.0827   -2.5923   -0.0996 H   0  0  0  0  0  0  0  0  0  0  0  0
    3.7913   -1.8946    3.3328 H   0  0  0  0  0  0  0  0  0  0  0  0
    2.8271    0.7247    2.9234 H   0  0  0  0  0  0  0  0  0  0  0  0
    1.4566   -1.2990    3.8536 H   0  0  0  0  0  0  0  0  0  0  0  0
    0.2227   -0.7792    1.8035 H   0  0  0  0  0  0  0  0  0  0  0  0
    1.9782   -3.6266    2.6975 H   0  0  0  0  0  0  0  0  0  0  0  0
  1  2  1  0  0  0  0
  1 12  1  0  0  0  0
  1 13  1  0  0  0  0
  1 14  1  0  0  0  0
  2  3  1  0  0  0  0
  3  4  1  0  0  0  0
  3 15  1  0  0  0  0
  3 16  1  0  0  0  0
  4  5  1  0  0  0  0
  4  6  1  0  0  0  0
  4 17  1  6  0  0  0
  5 18  1  0  0  0  0
  6  7  1  0  0  0  0
  6  8  1  0  0  0  0
  6 19  1  1  0  0  0
  7 20  1  0  0  0  0
  8  9  1  0  0  0  0
  8 10  1  0  0  0  0
  8 21  1  1  0  0  0
  9 22  1  0  0  0  0
 10 11  2  0  0  0  0
 10 23  1  0  0  0  0
M  END
$$$$
