CHEBI:15655
 OpenBabel04242413013D

 54 53  0  0  1  0  0  0  0  0999 V2000
   11.8119    3.5436   -7.5349 C   0  0  0  0  0  0  0  0  0  0  0  0
   12.2277    3.3147   -6.0894 C   0  0  0  0  0  0  0  0  0  0  0  0
   13.5402    2.5359   -5.9961 C   0  0  0  0  0  0  0  0  0  0  0  0
   14.1703    2.4974   -4.5989 C   0  0  0  0  0  0  0  0  0  0  0  0
   13.5522    1.5063   -3.5986 C   0  0  0  0  0  0  0  0  0  0  0  0
   12.1910    1.9135   -3.0273 C   0  0  1  0  0  0  0  0  0  0  0  0
   11.7285    0.9782   -1.9317 C   0  0  0  0  0  0  0  0  0  0  0  0
   11.8518    1.2417   -0.6230 C   0  0  0  0  0  0  0  0  0  0  0  0
   11.1999    0.4889    0.4144 C   0  0  0  0  0  0  0  0  0  0  0  0
   10.8533    0.9622    1.6234 C   0  0  0  0  0  0  0  0  0  0  0  0
   10.9599    2.3519    2.2094 C   0  0  0  0  0  0  0  0  0  0  0  0
   10.6992    3.5475    1.2821 C   0  0  0  0  0  0  0  0  0  0  0  0
   10.7517    4.8777    2.0389 C   0  0  0  0  0  0  0  0  0  0  0  0
   10.6957    6.0599    1.0644 C   0  0  0  0  0  0  0  0  0  0  0  0
   10.7829    7.4260    1.7502 C   0  0  0  0  0  0  0  0  0  0  0  0
   12.1216    7.6592    2.4539 C   0  0  0  0  0  0  0  0  0  0  0  0
   12.2168    9.0697    3.0326 C   0  0  0  0  0  0  0  0  0  0  0  0
   13.5191    9.2831    3.7702 C   0  0  0  0  0  0  0  0  0  0  0  0
   14.4120    8.4586    3.8870 O   0  0  0  0  0  0  0  0  0  0  0  0
   13.6059   10.5216    4.3088 O   0  0  0  0  0  0  0  0  0  0  0  0
   12.2828    3.2639   -2.5410 O   0  0  0  0  0  0  0  0  0  0  0  0
   10.9223    3.7965   -2.5252 O   0  0  0  0  0  0  0  0  0  0  0  0
   10.8457    4.0572   -7.5713 H   0  0  0  0  0  0  0  0  0  0  0  0
   11.7106    2.5931   -8.0684 H   0  0  0  0  0  0  0  0  0  0  0  0
   12.5451    4.1613   -8.0621 H   0  0  0  0  0  0  0  0  0  0  0  0
   11.4198    2.7653   -5.6047 H   0  0  0  0  0  0  0  0  0  0  0  0
   12.3215    4.2819   -5.5831 H   0  0  0  0  0  0  0  0  0  0  0  0
   14.2671    3.0141   -6.6659 H   0  0  0  0  0  0  0  0  0  0  0  0
   13.3988    1.5153   -6.3706 H   0  0  0  0  0  0  0  0  0  0  0  0
   14.2073    3.5074   -4.1740 H   0  0  0  0  0  0  0  0  0  0  0  0
   15.2180    2.1952   -4.7317 H   0  0  0  0  0  0  0  0  0  0  0  0
   14.2641    1.4259   -2.7648 H   0  0  0  0  0  0  0  0  0  0  0  0
   13.4908    0.5093   -4.0514 H   0  0  0  0  0  0  0  0  0  0  0  0
   11.4330    1.8732   -3.8124 H   0  0  0  0  0  0  0  0  0  0  0  0
   11.1571    0.1150   -2.2621 H   0  0  0  0  0  0  0  0  0  0  0  0
   12.4377    2.1031   -0.3215 H   0  0  0  0  0  0  0  0  0  0  0  0
   10.9647   -0.5488    0.1820 H   0  0  0  0  0  0  0  0  0  0  0  0
   10.3915    0.2437    2.3018 H   0  0  0  0  0  0  0  0  0  0  0  0
   11.9424    2.4497    2.6866 H   0  0  0  0  0  0  0  0  0  0  0  0
   10.2222    2.4069    3.0217 H   0  0  0  0  0  0  0  0  0  0  0  0
    9.7281    3.4379    0.7848 H   0  0  0  0  0  0  0  0  0  0  0  0
   11.4581    3.6050    0.5019 H   0  0  0  0  0  0  0  0  0  0  0  0
   11.6809    4.9134    2.6171 H   0  0  0  0  0  0  0  0  0  0  0  0
    9.9192    4.9374    2.7490 H   0  0  0  0  0  0  0  0  0  0  0  0
    9.7575    6.0124    0.4976 H   0  0  0  0  0  0  0  0  0  0  0  0
   11.5082    5.9754    0.3314 H   0  0  0  0  0  0  0  0  0  0  0  0
    9.9606    7.5308    2.4677 H   0  0  0  0  0  0  0  0  0  0  0  0
   10.6396    8.2015    0.9871 H   0  0  0  0  0  0  0  0  0  0  0  0
   12.9450    7.4954    1.7473 H   0  0  0  0  0  0  0  0  0  0  0  0
   12.2517    6.9347    3.2654 H   0  0  0  0  0  0  0  0  0  0  0  0
   11.3940    9.2349    3.7370 H   0  0  0  0  0  0  0  0  0  0  0  0
   12.1539    9.8076    2.2254 H   0  0  0  0  0  0  0  0  0  0  0  0
   12.8224   11.0778    4.1397 H   0  0  0  0  0  0  0  0  0  0  0  0
   11.1311    4.6344   -2.9736 H   0  0  0  0  0  0  0  0  0  0  0  0
  1  2  1  0  0  0  0
  1 23  1  0  0  0  0
  1 24  1  0  0  0  0
  1 25  1  0  0  0  0
  2  3  1  0  0  0  0
  2 26  1  0  0  0  0
  2 27  1  0  0  0  0
  3  4  1  0  0  0  0
  3 28  1  0  0  0  0
  3 29  1  0  0  0  0
  4  5  1  0  0  0  0
  4 30  1  0  0  0  0
  4 31  1  0  0  0  0
  5  6  1  0  0  0  0
  5 32  1  0  0  0  0
  5 33  1  0  0  0  0
  6  7  1  0  0  0  0
  6 21  1  0  0  0  0
  6 34  1  6  0  0  0
  7  8  2  0  0  0  0
  7 35  1  0  0  0  0
  8  9  1  0  0  0  0
  8 36  1  0  0  0  0
  9 10  2  0  0  0  0
  9 37  1  0  0  0  0
 10 11  1  0  0  0  0
 10 38  1  0  0  0  0
 11 12  1  0  0  0  0
 11 39  1  0  0  0  0
 11 40  1  0  0  0  0
 12 13  1  0  0  0  0
 12 41  1  0  0  0  0
 12 42  1  0  0  0  0
 13 14  1  0  0  0  0
 13 43  1  0  0  0  0
 13 44  1  0  0  0  0
 14 15  1  0  0  0  0
 14 45  1  0  0  0  0
 14 46  1  0  0  0  0
 15 16  1  0  0  0  0
 15 47  1  0  0  0  0
 15 48  1  0  0  0  0
 16 17  1  0  0  0  0
 16 49  1  0  0  0  0
 16 50  1  0  0  0  0
 17 18  1  0  0  0  0
 17 51  1  0  0  0  0
 17 52  1  0  0  0  0
 18 19  2  0  0  0  0
 18 20  1  0  0  0  0
 20 53  1  0  0  0  0
 21 22  1  0  0  0  0
 22 54  1  0  0  0  0
M  END
$$$$
