CHEBI:16143
 OpenBabel04242413543D

 35 35  0  0  1  0  0  0  0  0999 V2000
    6.6988   -1.5488    2.0023 N   0  0  0  0  0  0  0  0  0  0  0  0
    7.2123   -0.5167    1.4368 C   0  0  0  0  0  0  0  0  0  0  0  0
    8.2305    0.1736    1.9764 N   0  0  0  0  0  0  0  0  0  0  0  0
    6.8398   -0.0614    0.2215 N   0  0  0  0  0  0  0  0  0  0  0  0
    5.5714   -0.4269   -0.4372 C   0  0  1  0  0  0  0  0  0  0  0  0
    5.3960    0.5298   -1.6385 C   0  0  2  0  0  0  0  0  0  0  0  0
    5.3688    1.8913   -1.1730 O   0  0  0  0  0  0  0  0  0  0  0  0
    4.1161    0.2367   -2.4203 C   0  0  1  0  0  0  0  0  0  0  0  0
    4.0535    1.1540   -3.5250 O   0  0  0  0  0  0  0  0  0  0  0  0
    4.0833   -1.2060   -2.9303 C   0  0  2  0  0  0  0  0  0  0  0  0
    2.7963   -1.3919   -3.5256 O   0  0  0  0  0  0  0  0  0  0  0  0
    2.5955   -2.6112   -4.5460 P   0  0  0  0  0  0  0  0  0  0  0  0
    3.6507   -2.8208   -5.5727 O   0  0  0  0  0  0  0  0  0  0  0  0
    2.2836   -3.8581   -3.6048 O   0  0  0  0  0  0  0  0  0  0  0  0
    1.1462   -2.3178   -5.1493 O   0  0  0  0  0  0  0  0  0  0  0  0
    4.2933   -2.1826   -1.7712 C   0  0  1  0  0  0  0  0  0  0  0  0
    4.3869   -3.5393   -2.2623 O   0  0  0  0  0  0  0  0  0  0  0  0
    5.5607   -1.8836   -0.9517 C   0  0  2  0  0  0  0  0  0  0  0  0
    5.5480   -2.8757    0.0864 O   0  0  0  0  0  0  0  0  0  0  0  0
    7.1818   -1.7163    2.8895 H   0  0  0  0  0  0  0  0  0  0  0  0
    8.4241    0.0159    2.9563 H   0  0  0  0  0  0  0  0  0  0  0  0
    8.3201    1.1459    1.7155 H   0  0  0  0  0  0  0  0  0  0  0  0
    7.0296    0.9278    0.0766 H   0  0  0  0  0  0  0  0  0  0  0  0
    4.7613   -0.2670    0.2863 H   0  0  0  0  0  0  0  0  0  0  0  0
    6.2639    0.4626   -2.3081 H   0  0  0  0  0  0  0  0  0  0  0  0
    5.0638    2.4141   -1.9445 H   0  0  0  0  0  0  0  0  0  0  0  0
    3.2352    0.4549   -1.8036 H   0  0  0  0  0  0  0  0  0  0  0  0
    3.2851    0.8772   -4.0640 H   0  0  0  0  0  0  0  0  0  0  0  0
    4.8410   -1.3501   -3.7099 H   0  0  0  0  0  0  0  0  0  0  0  0
    3.1033   -4.0868   -3.1052 H   0  0  0  0  0  0  0  0  0  0  0  0
    0.8933   -3.0161   -5.7780 H   0  0  0  0  0  0  0  0  0  0  0  0
    3.4118   -2.1772   -1.1173 H   0  0  0  0  0  0  0  0  0  0  0  0
    4.8073   -4.0238   -1.5112 H   0  0  0  0  0  0  0  0  0  0  0  0
    6.4562   -2.0828   -1.5534 H   0  0  0  0  0  0  0  0  0  0  0  0
    6.0416   -2.4855    0.8519 H   0  0  0  0  0  0  0  0  0  0  0  0
  1  2  2  0  0  0  0
  1 20  1  0  0  0  0
  2  3  1  0  0  0  0
  2  4  1  0  0  0  0
  3 21  1  0  0  0  0
  3 22  1  0  0  0  0
  4 23  1  0  0  0  0
  5  6  1  0  0  0  0
  5 18  1  0  0  0  0
  5  4  1  0  0  0  0
  5 24  1  1  0  0  0
  6  8  1  0  0  0  0
  6  7  1  0  0  0  0
  6 25  1  6  0  0  0
  7 26  1  0  0  0  0
  8  9  1  0  0  0  0
  8 10  1  0  0  0  0
  8 27  1  1  0  0  0
  9 28  1  0  0  0  0
 10 16  1  0  0  0  0
 10 11  1  0  0  0  0
 10 29  1  6  0  0  0
 11 12  1  0  0  0  0
 12 13  2  0  0  0  0
 12 14  1  0  0  0  0
 12 15  1  0  0  0  0
 14 30  1  0  0  0  0
 15 31  1  0  0  0  0
 16 17  1  0  0  0  0
 16 18  1  0  0  0  0
 16 32  1  1  0  0  0
 17 33  1  0  0  0  0
 18 19  1  0  0  0  0
 18 34  1  6  0  0  0
 19 35  1  0  0  0  0
M  END
$$$$
