CHEBI:16288
 OpenBabel04242414083D

 22 21  0  0  1  0  0  0  0  0999 V2000
   10.8079   -2.4226    0.0533 C   0  0  0  0  0  0  0  0  0  0  0  0
    9.7566   -1.5334    0.6431 C   0  0  0  0  0  0  0  0  0  0  0  0
    9.6134   -0.3518    0.3652 O   0  0  0  0  0  0  0  0  0  0  0  0
    8.9886   -2.2388    1.5169 O   0  0  0  0  0  0  0  0  0  0  0  0
    7.9985   -1.4872    2.2349 C   0  0  0  0  0  0  0  0  0  0  0  0
    6.7099   -1.3346    1.4250 C   0  0  0  0  0  0  0  0  0  0  0  0
    6.1161   -2.6662    0.9554 C   0  0  2  0  0  0  0  0  0  0  0  0
    4.9363   -2.3980    0.0700 N   0  0  0  0  0  0  0  0  0  0  0  0
    5.6217   -3.4961    2.1540 C   0  0  0  0  0  0  0  0  0  0  0  0
    6.3322   -4.1100    2.9320 O   0  0  0  0  0  0  0  0  0  0  0  0
    4.2681   -3.4349    2.2665 O   0  0  0  0  0  0  0  0  0  0  0  0
   11.4053   -1.8517   -0.6633 H   0  0  0  0  0  0  0  0  0  0  0  0
   10.3367   -3.2566   -0.4728 H   0  0  0  0  0  0  0  0  0  0  0  0
   11.4680   -2.7892    0.8435 H   0  0  0  0  0  0  0  0  0  0  0  0
    8.3931   -0.5029    2.5161 H   0  0  0  0  0  0  0  0  0  0  0  0
    7.8090   -2.0155    3.1741 H   0  0  0  0  0  0  0  0  0  0  0  0
    6.9256   -0.7165    0.5445 H   0  0  0  0  0  0  0  0  0  0  0  0
    5.9802   -0.7843    2.0325 H   0  0  0  0  0  0  0  0  0  0  0  0
    6.8365   -3.2613    0.3850 H   0  0  0  0  0  0  0  0  0  0  0  0
    5.2149   -1.7013   -0.6281 H   0  0  0  0  0  0  0  0  0  0  0  0
    4.7640   -3.2467   -0.4816 H   0  0  0  0  0  0  0  0  0  0  0  0
    3.9611   -2.8771    1.5076 H   0  0  0  0  0  0  0  0  0  0  0  0
  1  2  1  0  0  0  0
  1 12  1  0  0  0  0
  1 13  1  0  0  0  0
  1 14  1  0  0  0  0
  2  3  2  0  0  0  0
  2  4  1  0  0  0  0
  4  5  1  0  0  0  0
  5  6  1  0  0  0  0
  5 15  1  0  0  0  0
  5 16  1  0  0  0  0
  6 17  1  0  0  0  0
  6 18  1  0  0  0  0
  7  9  1  0  0  0  0
  7  8  1  0  0  0  0
  7  6  1  0  0  0  0
  7 19  1  6  0  0  0
  8 20  1  0  0  0  0
  8 21  1  0  0  0  0
  9 10  2  0  0  0  0
  9 11  1  0  0  0  0
 11 22  1  0  0  0  0
M  END
$$$$
