CHEBI:18406
 OpenBabel04252409353D

 37 38  0  0  1  0  0  0  0  0999 V2000
    0.1542   -6.3181    2.7494 N   0  0  0  0  0  0  0  0  0  0  0  0
    1.3074   -6.1100    2.0461 C   0  0  0  0  0  0  0  0  0  0  0  0
    1.5624   -6.7381    1.0219 O   0  0  0  0  0  0  0  0  0  0  0  0
    2.1612   -5.0754    2.6245 C   0  0  0  0  0  0  0  0  0  0  0  0
    1.7868   -4.3452    3.7464 N   0  0  0  0  0  0  0  0  0  0  0  0
    2.7636   -3.4909    3.9410 C   0  0  0  0  0  0  0  0  0  0  0  0
    3.7603   -3.6213    3.0030 N   0  0  0  0  0  0  0  0  0  0  0  0
    4.9172   -2.7328    2.9637 C   0  0  2  0  0  0  0  0  0  0  0  0
    5.7130   -2.9592    1.7753 O   0  0  0  0  0  0  0  0  0  0  0  0
    7.1015   -3.0839    2.1688 C   0  0  2  0  0  0  0  0  0  0  0  0
    7.5169   -4.5569    2.1134 C   0  0  0  0  0  0  0  0  0  0  0  0
    7.4361   -5.0087    0.7702 O   0  0  0  0  0  0  0  0  0  0  0  0
    7.8131   -6.5320    0.4646 P   0  0  0  0  0  0  0  0  0  0  0  0
    7.6420   -6.9919   -0.9396 O   0  0  0  0  0  0  0  0  0  0  0  0
    9.3174   -6.6738    0.9848 O   0  0  0  0  0  0  0  0  0  0  0  0
    7.0000   -7.3910    1.5334 O   0  0  0  0  0  0  0  0  0  0  0  0
    7.1895   -2.5176    3.5809 C   0  0  1  0  0  0  0  0  0  0  0  0
    7.2525   -1.0798    3.5626 O   0  0  0  0  0  0  0  0  0  0  0  0
    5.8439   -2.9043    4.1710 C   0  0  1  0  0  0  0  0  0  0  0  0
    5.5009   -2.0570    5.2674 O   0  0  0  0  0  0  0  0  0  0  0  0
    3.4036   -4.6564    2.1704 C   0  0  0  0  0  0  0  0  0  0  0  0
    4.1723   -5.0741    1.1351 N   0  0  0  0  0  0  0  0  0  0  0  0
   -0.5272   -6.9782    2.4113 H   0  0  0  0  0  0  0  0  0  0  0  0
   -0.0283   -5.7450    3.5655 H   0  0  0  0  0  0  0  0  0  0  0  0
    2.8064   -2.7546    4.7352 H   0  0  0  0  0  0  0  0  0  0  0  0
    4.5154   -1.7137    2.9004 H   0  0  0  0  0  0  0  0  0  0  0  0
    7.6854   -2.5002    1.4491 H   0  0  0  0  0  0  0  0  0  0  0  0
    6.8529   -5.1711    2.7288 H   0  0  0  0  0  0  0  0  0  0  0  0
    8.5451   -4.6705    2.4711 H   0  0  0  0  0  0  0  0  0  0  0  0
    9.7414   -7.4453    0.5662 H   0  0  0  0  0  0  0  0  0  0  0  0
    6.0624   -7.4857    1.2727 H   0  0  0  0  0  0  0  0  0  0  0  0
    8.0403   -2.8770    4.1664 H   0  0  0  0  0  0  0  0  0  0  0  0
    8.0634   -0.8244    3.0841 H   0  0  0  0  0  0  0  0  0  0  0  0
    5.8546   -3.9421    4.5231 H   0  0  0  0  0  0  0  0  0  0  0  0
    5.9210   -1.1919    5.0706 H   0  0  0  0  0  0  0  0  0  0  0  0
    4.8617   -4.4165    0.7548 H   0  0  0  0  0  0  0  0  0  0  0  0
    3.6957   -5.5924    0.3915 H   0  0  0  0  0  0  0  0  0  0  0  0
  1  2  1  0  0  0  0
  1 23  1  0  0  0  0
  1 24  1  0  0  0  0
  2  3  2  0  0  0  0
  2  4  1  0  0  0  0
  4  5  1  0  0  0  0
  4 21  2  0  0  0  0
  5  6  2  0  0  0  0
  6  7  1  0  0  0  0
  6 25  1  0  0  0  0
  7  8  1  0  0  0  0
  7 21  1  0  0  0  0
  8  9  1  0  0  0  0
  8 19  1  0  0  0  0
  8 26  1  6  0  0  0
  9 10  1  0  0  0  0
 10 11  1  0  0  0  0
 10 17  1  0  0  0  0
 10 27  1  6  0  0  0
 11 12  1  0  0  0  0
 11 28  1  0  0  0  0
 11 29  1  0  0  0  0
 12 13  1  0  0  0  0
 13 14  2  0  0  0  0
 13 15  1  0  0  0  0
 13 16  1  0  0  0  0
 15 30  1  0  0  0  0
 16 31  1  0  0  0  0
 17 18  1  0  0  0  0
 17 19  1  0  0  0  0
 17 32  1  1  0  0  0
 18 33  1  0  0  0  0
 19 20  1  0  0  0  0
 19 34  1  1  0  0  0
 20 35  1  0  0  0  0
 21 22  1  0  0  0  0
 22 36  1  0  0  0  0
 22 37  1  0  0  0  0
M  END
$$$$
