CHEBI:18232
 OpenBabel04252409123D

 30 30  0  0  1  0  0  0  0  0999 V2000
    4.0249    2.8581    1.6302 N   0  0  0  0  0  0  0  0  0  0  0  0
    3.2659    1.8268    0.8850 C   0  0  1  0  0  0  0  0  0  0  0  0
    3.2270    2.0933   -0.6374 C   0  0  0  0  0  0  0  0  0  0  0  0
    4.5422    2.1622   -1.1728 O   0  0  0  0  0  0  0  0  0  0  0  0
    2.4848    1.0923   -1.3408 O   0  0  0  0  0  0  0  0  0  0  0  0
    3.0077   -0.2407   -1.1505 C   0  0  2  0  0  0  0  0  0  0  0  0
    2.1854   -1.2147   -2.0142 C   0  0  0  0  0  0  0  0  0  0  0  0
    0.8260   -1.3619   -1.6429 O   0  0  0  0  0  0  0  0  0  0  0  0
   -0.2353   -0.1804   -1.7936 P   0  0  0  0  0  0  0  0  0  0  0  0
   -1.6527   -0.5764   -2.0160 O   0  0  0  0  0  0  0  0  0  0  0  0
   -0.1181    0.6158   -0.4046 O   0  0  0  0  0  0  0  0  0  0  0  0
    0.3467    0.8957   -2.8126 O   0  0  0  0  0  0  0  0  0  0  0  0
    3.0711   -0.6305    0.3398 C   0  0  2  0  0  0  0  0  0  0  0  0
    1.7852   -0.7565    0.9642 O   0  0  0  0  0  0  0  0  0  0  0  0
    3.8561    0.4247    1.1321 C   0  0  2  0  0  0  0  0  0  0  0  0
    3.7952    0.1204    2.5353 O   0  0  0  0  0  0  0  0  0  0  0  0
    4.9733    2.8859    1.2487 H   0  0  0  0  0  0  0  0  0  0  0  0
    4.1450    2.4989    2.5839 H   0  0  0  0  0  0  0  0  0  0  0  0
    2.2403    1.8483    1.2741 H   0  0  0  0  0  0  0  0  0  0  0  0
    2.7302    3.0534   -0.8202 H   0  0  0  0  0  0  0  0  0  0  0  0
    4.5313    2.8905   -1.8176 H   0  0  0  0  0  0  0  0  0  0  0  0
    4.0282   -0.2537   -1.5555 H   0  0  0  0  0  0  0  0  0  0  0  0
    2.2177   -0.9018   -3.0638 H   0  0  0  0  0  0  0  0  0  0  0  0
    2.6393   -2.2102   -1.9628 H   0  0  0  0  0  0  0  0  0  0  0  0
   -1.0258    0.8728   -0.1384 H   0  0  0  0  0  0  0  0  0  0  0  0
    1.1653    1.2911   -2.4451 H   0  0  0  0  0  0  0  0  0  0  0  0
    3.5557   -1.6065    0.4543 H   0  0  0  0  0  0  0  0  0  0  0  0
    1.1516   -0.1677    0.5002 H   0  0  0  0  0  0  0  0  0  0  0  0
    4.9129    0.3983    0.8403 H   0  0  0  0  0  0  0  0  0  0  0  0
    2.9077   -0.2717    2.6755 H   0  0  0  0  0  0  0  0  0  0  0  0
  1 17  1  0  0  0  0
  1 18  1  0  0  0  0
  2  3  1  0  0  0  0
  2 15  1  0  0  0  0
  2  1  1  0  0  0  0
  2 19  1  1  0  0  0
  3  4  1  0  0  0  0
  3  5  1  0  0  0  0
  3 20  1  0  0  0  0
  4 21  1  0  0  0  0
  5  6  1  0  0  0  0
  6 13  1  0  0  0  0
  6  7  1  0  0  0  0
  6 22  1  6  0  0  0
  7  8  1  0  0  0  0
  7 23  1  0  0  0  0
  7 24  1  0  0  0  0
  8  9  1  0  0  0  0
  9 10  2  0  0  0  0
  9 11  1  0  0  0  0
  9 12  1  0  0  0  0
 11 25  1  0  0  0  0
 12 26  1  0  0  0  0
 13 15  1  0  0  0  0
 13 14  1  0  0  0  0
 13 27  1  1  0  0  0
 14 28  1  0  0  0  0
 15 16  1  0  0  0  0
 15 29  1  6  0  0  0
 16 30  1  0  0  0  0
M  END
$$$$
