CHEBI:9241
 OpenBabel04242411383D

 61 65  0  0  1  0  0  0  0  0999 V2000
    1.2551   -1.7619    0.3151 C   0  0  0  0  0  0  0  0  0  0  0  0
    2.6384   -1.1867    0.4261 C   0  0  0  0  0  0  0  0  0  0  0  0
    3.0596   -0.2951   -0.2989 O   0  0  0  0  0  0  0  0  0  0  0  0
    3.5889   -1.8557    1.7457 S   0  0  0  0  0  0  0  0  0  0  0  0
    5.2710   -1.2329    1.3115 C   0  0  2  0  0  0  0  0  0  0  0  0
    5.8103   -1.9151    0.0446 C   0  0  0  0  0  0  0  0  0  0  0  0
    6.1401   -3.3791    0.2476 C   0  0  0  0  0  0  0  0  0  0  0  0
    5.6595   -4.2902   -0.6176 C   0  0  0  0  0  0  0  0  0  0  0  0
    6.0378   -5.7193   -0.5387 C   0  0  0  0  0  0  0  0  0  0  0  0
    5.5615   -6.5142   -1.3451 O   0  0  0  0  0  0  0  0  0  0  0  0
    7.0735   -6.1231    0.4763 C   0  0  0  0  0  0  0  0  0  0  0  0
    6.9669   -5.2562    1.7235 C   0  0  0  0  0  0  0  0  0  0  0  0
    7.0471   -3.7273    1.4354 C   0  0  1  0  0  0  0  0  0  0  0  0
    8.4987   -3.3667    1.0425 C   0  0  0  0  0  0  0  0  0  0  0  0
    6.5774   -2.9517    2.7314 C   0  0  1  0  0  0  0  0  0  0  0  0
    7.5046   -3.1785    3.9581 C   0  0  0  0  0  0  0  0  0  0  0  0
    7.0883   -2.3704    5.1994 C   0  0  0  0  0  0  0  0  0  0  0  0
    6.9641   -0.8710    4.8861 C   0  0  1  0  0  0  0  0  0  0  0  0
    8.3712   -0.3223    4.5085 C   0  0  0  0  0  0  0  0  0  0  0  0
    5.9117   -0.7209    3.7679 C   0  0  1  0  0  0  0  0  0  0  0  0
    5.6672    0.7854    3.7077 C   0  0  0  0  0  0  0  0  0  0  0  0
    5.8386    1.2690    5.1586 C   0  0  0  0  0  0  0  0  0  0  0  0
    6.3384    0.0446    5.9795 C   0  0  1  0  0  0  0  0  0  0  0  0
    5.2220   -0.5497    6.8314 C   0  0  0  0  0  0  0  0  0  0  0  0
    5.2296    0.3439    8.0527 C   0  0  0  0  0  0  0  0  0  0  0  0
    6.6761    0.7224    8.1398 C   0  0  0  0  0  0  0  0  0  0  0  0
    7.2239    1.2125    9.1136 O   0  0  0  0  0  0  0  0  0  0  0  0
    7.3005    0.4670    6.9521 O   0  0  0  0  0  0  0  0  0  0  0  0
    6.3017   -1.4328    2.4600 C   0  0  2  0  0  0  0  0  0  0  0  0
    0.8441   -1.5251   -0.6706 H   0  0  0  0  0  0  0  0  0  0  0  0
    0.6114   -1.3272    1.0844 H   0  0  0  0  0  0  0  0  0  0  0  0
    1.2755   -2.8509    0.4166 H   0  0  0  0  0  0  0  0  0  0  0  0
    5.1818   -0.1581    1.1162 H   0  0  0  0  0  0  0  0  0  0  0  0
    6.7314   -1.4021   -0.2634 H   0  0  0  0  0  0  0  0  0  0  0  0
    5.1177   -1.7797   -0.7944 H   0  0  0  0  0  0  0  0  0  0  0  0
    5.0166   -4.0289   -1.4515 H   0  0  0  0  0  0  0  0  0  0  0  0
    8.0639   -6.0511    0.0159 H   0  0  0  0  0  0  0  0  0  0  0  0
    6.8997   -7.1693    0.7510 H   0  0  0  0  0  0  0  0  0  0  0  0
    7.7536   -5.5604    2.4240 H   0  0  0  0  0  0  0  0  0  0  0  0
    6.0096   -5.4842    2.2130 H   0  0  0  0  0  0  0  0  0  0  0  0
    8.7653   -3.7767    0.0612 H   0  0  0  0  0  0  0  0  0  0  0  0
    9.2228   -3.7682    1.7591 H   0  0  0  0  0  0  0  0  0  0  0  0
    8.6559   -2.2851    0.9865 H   0  0  0  0  0  0  0  0  0  0  0  0
    5.6145   -3.3918    3.0300 H   0  0  0  0  0  0  0  0  0  0  0  0
    8.5428   -2.9429    3.7088 H   0  0  0  0  0  0  0  0  0  0  0  0
    7.4938   -4.2387    4.2360 H   0  0  0  0  0  0  0  0  0  0  0  0
    7.8089   -2.5364    6.0088 H   0  0  0  0  0  0  0  0  0  0  0  0
    6.1304   -2.7782    5.5423 H   0  0  0  0  0  0  0  0  0  0  0  0
    8.7857   -0.7844    3.6093 H   0  0  0  0  0  0  0  0  0  0  0  0
    9.0847   -0.5109    5.3195 H   0  0  0  0  0  0  0  0  0  0  0  0
    8.3682    0.7572    4.3286 H   0  0  0  0  0  0  0  0  0  0  0  0
    4.9788   -1.1792    4.1267 H   0  0  0  0  0  0  0  0  0  0  0  0
    4.6679    1.0213    3.3280 H   0  0  0  0  0  0  0  0  0  0  0  0
    6.3932    1.2841    3.0554 H   0  0  0  0  0  0  0  0  0  0  0  0
    4.8888    1.6620    5.5377 H   0  0  0  0  0  0  0  0  0  0  0  0
    6.5551    2.0982    5.1981 H   0  0  0  0  0  0  0  0  0  0  0  0
    5.4677   -1.5629    7.1660 H   0  0  0  0  0  0  0  0  0  0  0  0
    4.2461   -0.5834    6.3383 H   0  0  0  0  0  0  0  0  0  0  0  0
    4.9091   -0.1968    8.9462 H   0  0  0  0  0  0  0  0  0  0  0  0
    4.6271    1.2452    7.9112 H   0  0  0  0  0  0  0  0  0  0  0  0
    7.2343   -0.9759    2.1075 H   0  0  0  0  0  0  0  0  0  0  0  0
  1  2  1  0  0  0  0
  1 30  1  0  0  0  0
  1 31  1  0  0  0  0
  1 32  1  0  0  0  0
  2  3  2  0  0  0  0
  2  4  1  0  0  0  0
  4  5  1  0  0  0  0
  5  6  1  0  0  0  0
  5 29  1  0  0  0  0
  5 33  1  6  0  0  0
  6  7  1  0  0  0  0
  6 34  1  0  0  0  0
  6 35  1  0  0  0  0
  7  8  2  0  0  0  0
  7 13  1  0  0  0  0
  8  9  1  0  0  0  0
  8 36  1  0  0  0  0
  9 10  2  0  0  0  0
  9 11  1  0  0  0  0
 11 12  1  0  0  0  0
 11 37  1  0  0  0  0
 11 38  1  0  0  0  0
 12 13  1  0  0  0  0
 12 39  1  0  0  0  0
 12 40  1  0  0  0  0
 13 14  1  6  0  0  0
 13 15  1  0  0  0  0
 14 41  1  0  0  0  0
 14 42  1  0  0  0  0
 14 43  1  0  0  0  0
 15 16  1  0  0  0  0
 15 29  1  0  0  0  0
 15 44  1  1  0  0  0
 16 17  1  0  0  0  0
 16 45  1  0  0  0  0
 16 46  1  0  0  0  0
 17 18  1  0  0  0  0
 17 47  1  0  0  0  0
 17 48  1  0  0  0  0
 18 19  1  6  0  0  0
 18 20  1  0  0  0  0
 18 23  1  0  0  0  0
 19 49  1  0  0  0  0
 19 50  1  0  0  0  0
 19 51  1  0  0  0  0
 20 21  1  0  0  0  0
 20 29  1  0  0  0  0
 20 52  1  1  0  0  0
 21 22  1  0  0  0  0
 21 53  1  0  0  0  0
 21 54  1  0  0  0  0
 22 23  1  0  0  0  0
 22 55  1  0  0  0  0
 22 56  1  0  0  0  0
 23 24  1  0  0  0  0
 23 28  1  1  0  0  0
 24 25  1  0  0  0  0
 24 57  1  0  0  0  0
 24 58  1  0  0  0  0
 25 26  1  0  0  0  0
 25 59  1  0  0  0  0
 25 60  1  0  0  0  0
 26 27  2  0  0  0  0
 26 28  1  0  0  0  0
 29 61  1  6  0  0  0
M  END
$$$$
