CHEBI:16562
 OpenBabel04242414463D

 19 19  0  0  0  0  0  0  0  0999 V2000
    3.2339   -0.9844    1.9104 N   0  0  0  0  0  0  0  0  0  0  0  0
    3.0548   -1.4531    0.6400 C   0  0  0  0  0  0  0  0  0  0  0  0
    2.2293   -2.3323    0.4117 O   0  0  0  0  0  0  0  0  0  0  0  0
    3.8583   -0.7677   -0.4493 C   0  0  0  0  0  0  0  0  0  0  0  0
    5.3349   -0.6601   -0.1474 C   0  0  0  0  0  0  0  0  0  0  0  0
    6.1233   -1.8158   -0.0509 C   0  0  0  0  0  0  0  0  0  0  0  0
    7.4850   -1.7203    0.2381 C   0  0  0  0  0  0  0  0  0  0  0  0
    8.0719   -0.4712    0.4299 C   0  0  0  0  0  0  0  0  0  0  0  0
    7.2986    0.6841    0.3313 C   0  0  0  0  0  0  0  0  0  0  0  0
    5.9360    0.5918    0.0433 C   0  0  0  0  0  0  0  0  0  0  0  0
    2.7594   -1.4909    2.6465 H   0  0  0  0  0  0  0  0  0  0  0  0
    4.0721   -0.4742    2.1587 H   0  0  0  0  0  0  0  0  0  0  0  0
    3.4191    0.2235   -0.6136 H   0  0  0  0  0  0  0  0  0  0  0  0
    3.7323   -1.3297   -1.3826 H   0  0  0  0  0  0  0  0  0  0  0  0
    5.6801   -2.7988   -0.2018 H   0  0  0  0  0  0  0  0  0  0  0  0
    8.0888   -2.6215    0.3099 H   0  0  0  0  0  0  0  0  0  0  0  0
    9.1337   -0.3979    0.6508 H   0  0  0  0  0  0  0  0  0  0  0  0
    7.7591    1.6584    0.4742 H   0  0  0  0  0  0  0  0  0  0  0  0
    5.3496    1.5049   -0.0350 H   0  0  0  0  0  0  0  0  0  0  0  0
  1  2  1  0  0  0  0
  1 11  1  0  0  0  0
  1 12  1  0  0  0  0
  2  3  2  0  0  0  0
  2  4  1  0  0  0  0
  4  5  1  0  0  0  0
  4 13  1  0  0  0  0
  4 14  1  0  0  0  0
  5  6  1  0  0  0  0
  5 10  2  0  0  0  0
  6  7  2  0  0  0  0
  6 15  1  0  0  0  0
  7  8  1  0  0  0  0
  7 16  1  0  0  0  0
  8  9  2  0  0  0  0
  8 17  1  0  0  0  0
  9 10  1  0  0  0  0
  9 18  1  0  0  0  0
 10 19  1  0  0  0  0
M  END
$$$$
