CHEBI:16168
 OpenBabel04242413583D

 15 15  0  0  0  0  0  0  0  0999 V2000
    2.9980   -1.0590    0.2163 O   0  0  0  0  0  0  0  0  0  0  0  0
    2.3462   -0.0463    0.0370 C   0  0  0  0  0  0  0  0  0  0  0  0
    1.0379    0.0645    0.3478 O   0  0  0  0  0  0  0  0  0  0  0  0
    2.9071    1.1675   -0.5814 C   0  0  0  0  0  0  0  0  0  0  0  0
    2.5555    2.4585   -0.1800 C   0  0  0  0  0  0  0  0  0  0  0  0
    3.1470    3.5512   -0.8151 C   0  0  0  0  0  0  0  0  0  0  0  0
    4.0682    3.3034   -1.8211 C   0  0  0  0  0  0  0  0  0  0  0  0
    4.6807    4.3226   -2.4846 O   0  0  0  0  0  0  0  0  0  0  0  0
    4.4340    2.0733   -2.2187 N   0  0  0  0  0  0  0  0  0  0  0  0
    3.8580    1.0257   -1.5813 C   0  0  0  0  0  0  0  0  0  0  0  0
    0.5848    0.8474   -0.0165 H   0  0  0  0  0  0  0  0  0  0  0  0
    1.8589    2.6257    0.6367 H   0  0  0  0  0  0  0  0  0  0  0  0
    2.8926    4.5611   -0.5153 H   0  0  0  0  0  0  0  0  0  0  0  0
    4.3972    5.1608   -2.0938 H   0  0  0  0  0  0  0  0  0  0  0  0
    4.1911    0.0453   -1.9141 H   0  0  0  0  0  0  0  0  0  0  0  0
  1  2  2  0  0  0  0
  2  3  1  0  0  0  0
  2  4  1  0  0  0  0
  3 11  1  0  0  0  0
  4  5  1  0  0  0  0
  4 10  2  0  0  0  0
  5  6  2  0  0  0  0
  5 12  1  0  0  0  0
  6  7  1  0  0  0  0
  6 13  1  0  0  0  0
  7  8  1  0  0  0  0
  7  9  2  0  0  0  0
  8 14  1  0  0  0  0
  9 10  1  0  0  0  0
 10 15  1  0  0  0  0
M  END
$$$$
