CHEBI:15760
 OpenBabel04242413133D

 21 21  0  0  0  0  0  0  0  0999 V2000
    0.9754    1.7266    1.4385 N   0  0  0  0  0  0  0  0  0  0  0  0
    2.4223    1.9275    1.3679 C   0  0  0  0  0  0  0  0  0  0  0  0
    3.1450    0.6253    1.0081 C   0  0  0  0  0  0  0  0  0  0  0  0
    4.6411    0.8176    0.9404 C   0  0  0  0  0  0  0  0  0  0  0  0
    5.4347    0.6421    2.0834 C   0  0  0  0  0  0  0  0  0  0  0  0
    6.8168    0.8366    2.0241 C   0  0  0  0  0  0  0  0  0  0  0  0
    7.4039    1.2114    0.8200 C   0  0  0  0  0  0  0  0  0  0  0  0
    8.7489    1.4107    0.7172 O   0  0  0  0  0  0  0  0  0  0  0  0
    6.6328    1.3962   -0.3206 C   0  0  0  0  0  0  0  0  0  0  0  0
    5.2521    1.2018   -0.2615 C   0  0  0  0  0  0  0  0  0  0  0  0
    0.5289    2.6043    1.7027 H   0  0  0  0  0  0  0  0  0  0  0  0
    0.7573    1.0626    2.1805 H   0  0  0  0  0  0  0  0  0  0  0  0
    2.7784    2.3081    2.3323 H   0  0  0  0  0  0  0  0  0  0  0  0
    2.6351    2.6972    0.6174 H   0  0  0  0  0  0  0  0  0  0  0  0
    2.7839    0.2441    0.0440 H   0  0  0  0  0  0  0  0  0  0  0  0
    2.9143   -0.1548    1.7454 H   0  0  0  0  0  0  0  0  0  0  0  0
    4.9793    0.3506    3.0272 H   0  0  0  0  0  0  0  0  0  0  0  0
    7.4119    0.6925    2.9199 H   0  0  0  0  0  0  0  0  0  0  0  0
    9.1540    1.2319    1.5812 H   0  0  0  0  0  0  0  0  0  0  0  0
    7.1043    1.6904   -1.2538 H   0  0  0  0  0  0  0  0  0  0  0  0
    4.6562    1.3506   -1.1593 H   0  0  0  0  0  0  0  0  0  0  0  0
  1  2  1  0  0  0  0
  1 11  1  0  0  0  0
  1 12  1  0  0  0  0
  2  3  1  0  0  0  0
  2 13  1  0  0  0  0
  2 14  1  0  0  0  0
  3  4  1  0  0  0  0
  3 15  1  0  0  0  0
  3 16  1  0  0  0  0
  4  5  1  0  0  0  0
  4 10  2  0  0  0  0
  5  6  2  0  0  0  0
  5 17  1  0  0  0  0
  6  7  1  0  0  0  0
  6 18  1  0  0  0  0
  7  8  1  0  0  0  0
  7  9  2  0  0  0  0
  8 19  1  0  0  0  0
  9 10  1  0  0  0  0
  9 20  1  0  0  0  0
 10 21  1  0  0  0  0
M  END
$$$$
