CHEBI:16299
 OpenBabel04242414093D

 34 36  0  0  1  0  0  0  0  0999 V2000
    1.1146    4.3364   -2.2309 O   0  0  0  0  0  0  0  0  0  0  0  0
    2.1804    4.8356   -1.8582 C   0  0  0  0  0  0  0  0  0  0  0  0
    2.6837    6.1056   -2.5115 C   0  0  0  0  0  0  0  0  0  0  0  0
    3.0826    7.1358   -1.5614 N   0  0  0  0  0  0  0  0  0  0  0  0
    4.1877    6.9854   -0.7677 C   0  0  0  0  0  0  0  0  0  0  0  0
    4.7394    5.9731   -0.1872 N   0  0  0  0  0  0  0  0  0  0  0  0
    4.1407    4.7533   -0.2253 C   0  0  0  0  0  0  0  0  0  0  0  0
    3.0480    4.1890   -0.8829 C   0  0  0  0  0  0  0  0  0  0  0  0
    2.8699    2.8688   -0.5107 N   0  0  0  0  0  0  0  0  0  0  0  0
    3.8255    2.6193    0.3465 C   0  0  0  0  0  0  0  0  0  0  0  0
    4.6101    3.7183    0.5663 N   0  0  0  0  0  0  0  0  0  0  0  0
    5.7317    3.7081    1.4907 C   0  0  2  0  0  0  0  0  0  0  0  0
    5.6527    4.8305    2.3935 O   0  0  0  0  0  0  0  0  0  0  0  0
    7.0032    5.2504    2.7011 C   0  0  2  0  0  0  0  0  0  0  0  0
    7.1728    6.7133    2.2872 C   0  0  0  0  0  0  0  0  0  0  0  0
    7.1703    6.8596    0.8733 O   0  0  0  0  0  0  0  0  0  0  0  0
    7.9523    4.2960    1.9707 C   0  0  1  0  0  0  0  0  0  0  0  0
    8.2918    3.1788    2.8210 O   0  0  0  0  0  0  0  0  0  0  0  0
    7.1062    3.7503    0.8291 C   0  0  1  0  0  0  0  0  0  0  0  0
    7.5685    2.4616    0.4172 O   0  0  0  0  0  0  0  0  0  0  0  0
    1.8722    6.5078   -3.1289 H   0  0  0  0  0  0  0  0  0  0  0  0
    3.5134    5.8587   -3.1838 H   0  0  0  0  0  0  0  0  0  0  0  0
    2.9644    8.0716   -1.9405 H   0  0  0  0  0  0  0  0  0  0  0  0
    4.6829    7.9615   -0.6124 H   0  0  0  0  0  0  0  0  0  0  0  0
    3.9928    1.6684    0.8368 H   0  0  0  0  0  0  0  0  0  0  0  0
    5.6303    2.8016    2.1022 H   0  0  0  0  0  0  0  0  0  0  0  0
    7.1176    5.1735    3.7880 H   0  0  0  0  0  0  0  0  0  0  0  0
    8.1264    7.1024    2.6568 H   0  0  0  0  0  0  0  0  0  0  0  0
    6.3638    7.3310    2.6906 H   0  0  0  0  0  0  0  0  0  0  0  0
    6.2837    6.5588    0.5715 H   0  0  0  0  0  0  0  0  0  0  0  0
    8.8922    4.7462    1.6388 H   0  0  0  0  0  0  0  0  0  0  0  0
    8.8648    3.5204    3.5324 H   0  0  0  0  0  0  0  0  0  0  0  0
    7.1263    4.4192   -0.0362 H   0  0  0  0  0  0  0  0  0  0  0  0
    7.9888    2.0706    1.2124 H   0  0  0  0  0  0  0  0  0  0  0  0
  1  2  2  0  0  0  0
  2  3  1  0  0  0  0
  2  8  1  0  0  0  0
  3  4  1  0  0  0  0
  3 21  1  0  0  0  0
  3 22  1  0  0  0  0
  4  5  1  0  0  0  0
  4 23  1  0  0  0  0
  5  6  2  0  0  0  0
  5 24  1  0  0  0  0
  6  7  1  0  0  0  0
  7  8  2  0  0  0  0
  7 11  1  0  0  0  0
  8  9  1  0  0  0  0
  9 10  2  0  0  0  0
 10 11  1  0  0  0  0
 10 25  1  0  0  0  0
 11 12  1  0  0  0  0
 12 13  1  0  0  0  0
 12 19  1  0  0  0  0
 12 26  1  1  0  0  0
 13 14  1  0  0  0  0
 14 15  1  0  0  0  0
 14 17  1  0  0  0  0
 14 27  1  1  0  0  0
 15 16  1  0  0  0  0
 15 28  1  0  0  0  0
 15 29  1  0  0  0  0
 16 30  1  0  0  0  0
 17 18  1  0  0  0  0
 17 19  1  0  0  0  0
 17 31  1  6  0  0  0
 18 32  1  0  0  0  0
 19 20  1  0  0  0  0
 19 33  1  6  0  0  0
 20 34  1  0  0  0  0
M  END
$$$$
