CHEBI:16823
 OpenBabel04242415203D

 74 76  0  0  1  0  0  0  0  0999 V2000
   -1.0599    1.0921    9.5396 N   0  0  0  0  0  0  0  0  0  0  0  0
   -0.3264    0.7856    8.3055 C   0  0  0  0  0  0  0  0  0  0  0  0
   -1.2314    0.5427    7.0735 C   0  0  1  0  0  0  0  0  0  0  0  0
   -0.3470    0.2781    5.9781 O   0  0  0  0  0  0  0  0  0  0  0  0
   -1.0123   -0.0851    4.7691 C   0  0  2  0  0  0  0  0  0  0  0  0
   -1.8864    0.9348    4.2994 O   0  0  0  0  0  0  0  0  0  0  0  0
   -1.2826    2.1361    3.7747 C   0  0  1  0  0  0  0  0  0  0  0  0
   -0.5291    1.8620    2.4520 C   0  0  2  0  0  0  0  0  0  0  0  0
    0.7611    1.2835    2.7498 O   0  0  0  0  0  0  0  0  0  0  0  0
   -0.2513    3.0778    1.5298 C   0  0  1  0  0  0  0  0  0  0  0  0
    0.1182    2.4587    0.2645 O   0  0  0  0  0  0  0  0  0  0  0  0
    0.4108    3.3459   -0.8185 C   0  0  1  0  0  0  0  0  0  0  0  0
    1.5490    4.1634   -0.5624 O   0  0  0  0  0  0  0  0  0  0  0  0
    2.7917    3.4394   -0.4951 C   0  0  2  0  0  0  0  0  0  0  0  0
    3.8858    4.4742   -0.2029 C   0  0  0  0  0  0  0  0  0  0  0  0
    3.8288    5.5419   -1.1525 O   0  0  0  0  0  0  0  0  0  0  0  0
    3.0673    2.6817   -1.8021 C   0  0  1  0  0  0  0  0  0  0  0  0
    4.2625    1.9032   -1.7050 O   0  0  0  0  0  0  0  0  0  0  0  0
    1.8958    1.7362   -2.1039 C   0  0  2  0  0  0  0  0  0  0  0  0
    2.1378    1.0104   -3.3784 N   0  0  0  0  0  0  0  0  0  0  0  0
    0.5779    2.5194   -2.1183 C   0  0  1  0  0  0  0  0  0  0  0  0
   -0.5155    1.6064   -2.3025 O   0  0  0  0  0  0  0  0  0  0  0  0
   -1.4557    4.0525    1.4442 C   0  0  2  0  0  0  0  0  0  0  0  0
   -1.0941    5.3398    0.8241 N   0  0  0  0  0  0  0  0  0  0  0  0
   -2.0342    4.3702    2.8233 C   0  0  0  0  0  0  0  0  0  0  0  0
   -2.4743    3.1001    3.5395 C   0  0  2  0  0  0  0  0  0  0  0  0
   -3.1537    3.4674    4.7961 N   0  0  0  0  0  0  0  0  0  0  0  0
   -1.8231   -1.3733    4.9987 C   0  0  2  0  0  0  0  0  0  0  0  0
   -2.4430   -1.8394    3.7893 O   0  0  0  0  0  0  0  0  0  0  0  0
   -2.8842   -1.1316    6.0709 C   0  0  1  0  0  0  0  0  0  0  0  0
   -3.5501   -2.3863    6.2672 O   0  0  0  0  0  0  0  0  0  0  0  0
   -4.6562   -2.5437    7.4106 P   0  0  0  0  0  0  0  0  0  0  0  0
   -4.1791   -2.9692    8.7574 O   0  0  0  0  0  0  0  0  0  0  0  0
   -5.5140   -1.2002    7.3857 O   0  0  0  0  0  0  0  0  0  0  0  0
   -5.6716   -3.5977    6.7692 O   0  0  0  0  0  0  0  0  0  0  0  0
   -2.2266   -0.6090    7.3529 C   0  0  2  0  0  0  0  0  0  0  0  0
   -3.2604   -0.1576    8.2546 O   0  0  0  0  0  0  0  0  0  0  0  0
   -0.3948    1.0607   10.3178 H   0  0  0  0  0  0  0  0  0  0  0  0
   -1.3653    2.0676    9.5022 H   0  0  0  0  0  0  0  0  0  0  0  0
    0.2913   -0.1060    8.4741 H   0  0  0  0  0  0  0  0  0  0  0  0
    0.3807    1.5962    8.0906 H   0  0  0  0  0  0  0  0  0  0  0  0
   -1.7816    1.4704    6.8700 H   0  0  0  0  0  0  0  0  0  0  0  0
   -0.2613   -0.3199    4.0143 H   0  0  0  0  0  0  0  0  0  0  0  0
   -0.6012    2.5472    4.5303 H   0  0  0  0  0  0  0  0  0  0  0  0
   -1.0745    1.0902    1.8933 H   0  0  0  0  0  0  0  0  0  0  0  0
    1.1709    1.0810    1.8880 H   0  0  0  0  0  0  0  0  0  0  0  0
    0.6349    3.6078    1.9047 H   0  0  0  0  0  0  0  0  0  0  0  0
   -0.4559    3.9821   -1.0035 H   0  0  0  0  0  0  0  0  0  0  0  0
    2.7631    2.7368    0.3475 H   0  0  0  0  0  0  0  0  0  0  0  0
    4.8872    4.0352   -0.2237 H   0  0  0  0  0  0  0  0  0  0  0  0
    3.7244    4.9206    0.7840 H   0  0  0  0  0  0  0  0  0  0  0  0
    2.8938    5.8227   -1.1687 H   0  0  0  0  0  0  0  0  0  0  0  0
    3.1888    3.3905   -2.6315 H   0  0  0  0  0  0  0  0  0  0  0  0
    4.2050    1.2663   -2.4486 H   0  0  0  0  0  0  0  0  0  0  0  0
    1.8520    0.9536   -1.3351 H   0  0  0  0  0  0  0  0  0  0  0  0
    2.1485    1.6824   -4.1490 H   0  0  0  0  0  0  0  0  0  0  0  0
    1.3001    0.4463   -3.5615 H   0  0  0  0  0  0  0  0  0  0  0  0
    0.5819    3.2071   -2.9732 H   0  0  0  0  0  0  0  0  0  0  0  0
   -0.6571    1.1782   -1.4353 H   0  0  0  0  0  0  0  0  0  0  0  0
   -2.2295    3.5974    0.8140 H   0  0  0  0  0  0  0  0  0  0  0  0
   -0.3242    5.7808    1.3294 H   0  0  0  0  0  0  0  0  0  0  0  0
   -1.8775    5.9920    0.8634 H   0  0  0  0  0  0  0  0  0  0  0  0
   -2.8959    5.0428    2.7085 H   0  0  0  0  0  0  0  0  0  0  0  0
   -1.2940    4.9071    3.4331 H   0  0  0  0  0  0  0  0  0  0  0  0
   -3.2230    2.5805    2.9262 H   0  0  0  0  0  0  0  0  0  0  0  0
   -3.9810    4.0270    4.5909 H   0  0  0  0  0  0  0  0  0  0  0  0
   -2.5468    4.0397    5.3787 H   0  0  0  0  0  0  0  0  0  0  0  0
   -1.1505   -2.1737    5.3325 H   0  0  0  0  0  0  0  0  0  0  0  0
   -3.1275   -2.4762    4.0750 H   0  0  0  0  0  0  0  0  0  0  0  0
   -3.6454   -0.4313    5.7070 H   0  0  0  0  0  0  0  0  0  0  0  0
   -4.9856   -0.5006    7.8356 H   0  0  0  0  0  0  0  0  0  0  0  0
   -6.2473   -3.9719    7.4585 H   0  0  0  0  0  0  0  0  0  0  0  0
   -1.7141   -1.4451    7.8459 H   0  0  0  0  0  0  0  0  0  0  0  0
   -2.7639    0.1643    9.0464 H   0  0  0  0  0  0  0  0  0  0  0  0
  1  2  1  0  0  0  0
  1 38  1  0  0  0  0
  1 39  1  0  0  0  0
  2  3  1  0  0  0  0
  2 40  1  0  0  0  0
  2 41  1  0  0  0  0
  3  4  1  0  0  0  0
  3 36  1  0  0  0  0
  3 42  1  6  0  0  0
  4  5  1  0  0  0  0
  5 28  1  0  0  0  0
  5  6  1  0  0  0  0
  5 43  1  6  0  0  0
  7  8  1  0  0  0  0
  7 26  1  0  0  0  0
  7  6  1  0  0  0  0
  7 44  1  1  0  0  0
  8 10  1  0  0  0  0
  8  9  1  0  0  0  0
  8 45  1  6  0  0  0
  9 46  1  0  0  0  0
 10 11  1  0  0  0  0
 10 23  1  0  0  0  0
 10 47  1  1  0  0  0
 12 13  1  0  0  0  0
 12 21  1  0  0  0  0
 12 11  1  0  0  0  0
 12 48  1  6  0  0  0
 13 14  1  0  0  0  0
 14 15  1  0  0  0  0
 14 17  1  0  0  0  0
 14 49  1  1  0  0  0
 15 16  1  0  0  0  0
 15 50  1  0  0  0  0
 15 51  1  0  0  0  0
 16 52  1  0  0  0  0
 17 18  1  0  0  0  0
 17 19  1  0  0  0  0
 17 53  1  6  0  0  0
 18 54  1  0  0  0  0
 19 21  1  0  0  0  0
 19 20  1  0  0  0  0
 19 55  1  1  0  0  0
 20 56  1  0  0  0  0
 20 57  1  0  0  0  0
 21 22  1  0  0  0  0
 21 58  1  6  0  0  0
 22 59  1  0  0  0  0
 23 25  1  0  0  0  0
 23 24  1  0  0  0  0
 23 60  1  6  0  0  0
 24 61  1  0  0  0  0
 24 62  1  0  0  0  0
 25 26  1  0  0  0  0
 25 63  1  0  0  0  0
 25 64  1  0  0  0  0
 26 27  1  0  0  0  0
 26 65  1  6  0  0  0
 27 66  1  0  0  0  0
 27 67  1  0  0  0  0
 28 29  1  0  0  0  0
 28 30  1  0  0  0  0
 28 68  1  1  0  0  0
 29 69  1  0  0  0  0
 30 36  1  0  0  0  0
 30 31  1  0  0  0  0
 30 70  1  6  0  0  0
 31 32  1  0  0  0  0
 32 33  2  0  0  0  0
 32 34  1  0  0  0  0
 32 35  1  0  0  0  0
 34 71  1  0  0  0  0
 35 72  1  0  0  0  0
 36 37  1  0  0  0  0
 36 73  1  1  0  0  0
 37 74  1  0  0  0  0
M  END
$$$$
