CHEBI:18257
 OpenBabel04252409173D

 21 20  0  0  0  0  0  0  0  0999 V2000
    5.8090   -3.6338    2.2166 N   0  0  0  0  0  0  0  0  0  0  0  0
    4.6313   -3.2404    1.4591 C   0  0  0  0  0  0  0  0  0  0  0  0
    3.6007   -2.4997    2.3131 C   0  0  0  0  0  0  0  0  0  0  0  0
    4.0310   -1.1226    2.8406 C   0  0  0  0  0  0  0  0  0  0  0  0
    5.2268   -1.0941    3.8001 C   0  0  0  0  0  0  0  0  0  0  0  0
    5.4835    0.3291    4.2196 N   0  0  0  0  0  0  0  0  0  0  0  0
    4.9570   -1.9190    5.0768 C   0  0  0  0  0  0  0  0  0  0  0  0
    4.8884   -3.1358    5.1465 O   0  0  0  0  0  0  0  0  0  0  0  0
    4.7754   -1.1030    6.1517 O   0  0  0  0  0  0  0  0  0  0  0  0
    6.3411   -4.3258    1.6895 H   0  0  0  0  0  0  0  0  0  0  0  0
    5.5215   -4.1040    3.0827 H   0  0  0  0  0  0  0  0  0  0  0  0
    4.1619   -4.1403    1.0461 H   0  0  0  0  0  0  0  0  0  0  0  0
    4.9381   -2.6154    0.6138 H   0  0  0  0  0  0  0  0  0  0  0  0
    3.2722   -3.1375    3.1417 H   0  0  0  0  0  0  0  0  0  0  0  0
    2.7086   -2.3470    1.6912 H   0  0  0  0  0  0  0  0  0  0  0  0
    3.1589   -0.6811    3.3426 H   0  0  0  0  0  0  0  0  0  0  0  0
    4.2459   -0.4794    1.9769 H   0  0  0  0  0  0  0  0  0  0  0  0
    6.1491   -1.4452    3.3337 H   0  0  0  0  0  0  0  0  0  0  0  0
    5.4180    0.9151    3.3820 H   0  0  0  0  0  0  0  0  0  0  0  0
    6.4756    0.3881    4.4793 H   0  0  0  0  0  0  0  0  0  0  0  0
    4.8731   -0.1827    5.7971 H   0  0  0  0  0  0  0  0  0  0  0  0
  1  2  1  0  0  0  0
  1 10  1  0  0  0  0
  1 11  1  0  0  0  0
  2  3  1  0  0  0  0
  2 12  1  0  0  0  0
  2 13  1  0  0  0  0
  3  4  1  0  0  0  0
  3 14  1  0  0  0  0
  3 15  1  0  0  0  0
  4  5  1  0  0  0  0
  4 16  1  0  0  0  0
  4 17  1  0  0  0  0
  5  6  1  0  0  0  0
  5  7  1  0  0  0  0
  5 18  1  0  0  0  0
  6 19  1  0  0  0  0
  6 20  1  0  0  0  0
  7  8  2  0  0  0  0
  7  9  1  0  0  0  0
  9 21  1  0  0  0  0
M  END
$$$$
