CHEBI:18092
 OpenBabel04242423313D

 73 73  0  0  0  0  0  0  0  0999 V2000
    3.4159   -0.0903    2.8454 C   0  0  0  0  0  0  0  0  0  0  0  0
    4.6254   -0.3236    1.9700 C   0  0  0  0  0  0  0  0  0  0  0  0
    5.1119   -1.5428    1.6293 C   0  0  0  0  0  0  0  0  0  0  0  0
    4.4320   -2.7775    2.0094 C   0  0  0  0  0  0  0  0  0  0  0  0
    3.1971   -3.0989    1.5931 C   0  0  0  0  0  0  0  0  0  0  0  0
    2.5198   -4.3446    1.9205 C   0  0  0  0  0  0  0  0  0  0  0  0
    1.1749   -4.1409    2.5661 C   0  0  0  0  0  0  0  0  0  0  0  0
    3.0858   -5.5243    1.6012 C   0  0  0  0  0  0  0  0  0  0  0  0
    2.4985   -6.8336    1.7694 C   0  0  0  0  0  0  0  0  0  0  0  0
    3.1422   -7.9712    1.4632 C   0  0  0  0  0  0  0  0  0  0  0  0
    2.5224   -9.2845    1.5867 C   0  0  0  0  0  0  0  0  0  0  0  0
    3.2617  -10.2210    2.5035 C   0  0  0  0  0  0  0  0  0  0  0  0
    1.3996   -9.5566    0.8959 C   0  0  0  0  0  0  0  0  0  0  0  0
    0.6218  -10.7723    0.9493 C   0  0  0  0  0  0  0  0  0  0  0  0
   -0.4591  -10.9761    0.1830 C   0  0  0  0  0  0  0  0  0  0  0  0
   -1.2821  -12.1607    0.2888 C   0  0  0  0  0  0  0  0  0  0  0  0
   -2.0317  -12.5130    1.3537 C   0  0  0  0  0  0  0  0  0  0  0  0
   -2.1526  -11.6754    2.6065 C   0  0  0  0  0  0  0  0  0  0  0  0
   -2.7763  -13.7731    1.3018 C   0  0  0  0  0  0  0  0  0  0  0  0
   -3.7189  -14.1637    2.1709 C   0  0  0  0  0  0  0  0  0  0  0  0
   -4.4085  -15.4318    2.0707 C   0  0  0  0  0  0  0  0  0  0  0  0
   -5.6147  -15.7132    2.6001 C   0  0  0  0  0  0  0  0  0  0  0  0
   -6.5119  -14.7143    3.2870 C   0  0  0  0  0  0  0  0  0  0  0  0
   -6.2016  -17.0958    2.4757 C   0  0  0  0  0  0  0  0  0  0  0  0
   -6.4630  -17.6150    3.7712 O   0  0  0  0  0  0  0  0  0  0  0  0
    6.4033   -1.7235    0.8009 C   0  0  0  0  0  0  0  0  0  0  0  0
    7.3546   -2.7817    1.4077 C   0  0  0  0  0  0  0  0  0  0  0  0
    6.0292   -2.1766   -0.6288 C   0  0  0  0  0  0  0  0  0  0  0  0
    7.2088   -0.3989    0.7271 C   0  0  0  0  0  0  0  0  0  0  0  0
    6.3225    0.7984    0.4243 C   0  0  0  0  0  0  0  0  0  0  0  0
    5.2675    0.9673    1.5098 C   0  0  0  0  0  0  0  0  0  0  0  0
    3.1061   -0.9748    3.4079 H   0  0  0  0  0  0  0  0  0  0  0  0
    2.5708    0.2454    2.2355 H   0  0  0  0  0  0  0  0  0  0  0  0
    3.6323    0.6853    3.5884 H   0  0  0  0  0  0  0  0  0  0  0  0
    4.9948   -3.4705    2.6303 H   0  0  0  0  0  0  0  0  0  0  0  0
    2.6302   -2.4008    0.9793 H   0  0  0  0  0  0  0  0  0  0  0  0
    1.2752   -3.5118    3.4585 H   0  0  0  0  0  0  0  0  0  0  0  0
    0.7027   -5.0701    2.8933 H   0  0  0  0  0  0  0  0  0  0  0  0
    0.4865   -3.6456    1.8730 H   0  0  0  0  0  0  0  0  0  0  0  0
    4.0677   -5.5172    1.1266 H   0  0  0  0  0  0  0  0  0  0  0  0
    1.4774   -6.8926    2.1356 H   0  0  0  0  0  0  0  0  0  0  0  0
    4.1749   -7.9587    1.1214 H   0  0  0  0  0  0  0  0  0  0  0  0
    3.3697   -9.7753    3.4988 H   0  0  0  0  0  0  0  0  0  0  0  0
    4.2626  -10.4280    2.1089 H   0  0  0  0  0  0  0  0  0  0  0  0
    2.7630  -11.1835    2.6376 H   0  0  0  0  0  0  0  0  0  0  0  0
    0.9980   -8.7842    0.2376 H   0  0  0  0  0  0  0  0  0  0  0  0
    0.9030  -11.5325    1.6726 H   0  0  0  0  0  0  0  0  0  0  0  0
   -0.7589  -10.2567   -0.5760 H   0  0  0  0  0  0  0  0  0  0  0  0
   -1.2839  -12.7736   -0.6121 H   0  0  0  0  0  0  0  0  0  0  0  0
   -1.6115  -10.7271    2.5513 H   0  0  0  0  0  0  0  0  0  0  0  0
   -1.7597  -12.2231    3.4701 H   0  0  0  0  0  0  0  0  0  0  0  0
   -3.1980  -11.4116    2.8000 H   0  0  0  0  0  0  0  0  0  0  0  0
   -2.5435  -14.4258    0.4596 H   0  0  0  0  0  0  0  0  0  0  0  0
   -3.9960  -13.5271    3.0060 H   0  0  0  0  0  0  0  0  0  0  0  0
   -3.8717  -16.2117    1.5296 H   0  0  0  0  0  0  0  0  0  0  0  0
   -6.1669  -13.6817    3.1877 H   0  0  0  0  0  0  0  0  0  0  0  0
   -6.5931  -14.9411    4.3543 H   0  0  0  0  0  0  0  0  0  0  0  0
   -7.5146  -14.7485    2.8470 H   0  0  0  0  0  0  0  0  0  0  0  0
   -5.5279  -17.7909    1.9640 H   0  0  0  0  0  0  0  0  0  0  0  0
   -7.1410  -17.0666    1.9149 H   0  0  0  0  0  0  0  0  0  0  0  0
   -5.6583  -17.4721    4.2982 H   0  0  0  0  0  0  0  0  0  0  0  0
    6.9364   -3.7931    1.3510 H   0  0  0  0  0  0  0  0  0  0  0  0
    7.5706   -2.5650    2.4603 H   0  0  0  0  0  0  0  0  0  0  0  0
    8.3099   -2.8048    0.8698 H   0  0  0  0  0  0  0  0  0  0  0  0
    5.5777   -3.1756   -0.6299 H   0  0  0  0  0  0  0  0  0  0  0  0
    6.9153   -2.2228   -1.2724 H   0  0  0  0  0  0  0  0  0  0  0  0
    5.3113   -1.4958   -1.0991 H   0  0  0  0  0  0  0  0  0  0  0  0
    7.9955   -0.4711   -0.0346 H   0  0  0  0  0  0  0  0  0  0  0  0
    7.7220   -0.2196    1.6824 H   0  0  0  0  0  0  0  0  0  0  0  0
    5.8402    0.6797   -0.5527 H   0  0  0  0  0  0  0  0  0  0  0  0
    6.9311    1.7080    0.3614 H   0  0  0  0  0  0  0  0  0  0  0  0
    4.4955    1.6501    1.1338 H   0  0  0  0  0  0  0  0  0  0  0  0
    5.7249    1.4521    2.3817 H   0  0  0  0  0  0  0  0  0  0  0  0
  1  2  1  0  0  0  0
  1 32  1  0  0  0  0
  1 33  1  0  0  0  0
  1 34  1  0  0  0  0
  2  3  2  0  0  0  0
  2 31  1  0  0  0  0
  3  4  1  0  0  0  0
  3 26  1  0  0  0  0
  4  5  2  0  0  0  0
  4 35  1  0  0  0  0
  5  6  1  0  0  0  0
  5 36  1  0  0  0  0
  6  7  1  0  0  0  0
  6  8  2  0  0  0  0
  7 37  1  0  0  0  0
  7 38  1  0  0  0  0
  7 39  1  0  0  0  0
  8  9  1  0  0  0  0
  8 40  1  0  0  0  0
  9 10  2  0  0  0  0
  9 41  1  0  0  0  0
 10 11  1  0  0  0  0
 10 42  1  0  0  0  0
 11 12  1  0  0  0  0
 11 13  2  0  0  0  0
 12 43  1  0  0  0  0
 12 44  1  0  0  0  0
 12 45  1  0  0  0  0
 13 14  1  0  0  0  0
 13 46  1  0  0  0  0
 14 15  2  0  0  0  0
 14 47  1  0  0  0  0
 15 16  1  0  0  0  0
 15 48  1  0  0  0  0
 16 17  2  0  0  0  0
 16 49  1  0  0  0  0
 17 18  1  0  0  0  0
 17 19  1  0  0  0  0
 18 50  1  0  0  0  0
 18 51  1  0  0  0  0
 18 52  1  0  0  0  0
 19 20  2  0  0  0  0
 19 53  1  0  0  0  0
 20 21  1  0  0  0  0
 20 54  1  0  0  0  0
 21 22  2  0  0  0  0
 21 55  1  0  0  0  0
 22 23  1  0  0  0  0
 22 24  1  0  0  0  0
 23 56  1  0  0  0  0
 23 57  1  0  0  0  0
 23 58  1  0  0  0  0
 24 25  1  0  0  0  0
 24 59  1  0  0  0  0
 24 60  1  0  0  0  0
 25 61  1  0  0  0  0
 26 27  1  0  0  0  0
 26 28  1  0  0  0  0
 26 29  1  0  0  0  0
 27 62  1  0  0  0  0
 27 63  1  0  0  0  0
 27 64  1  0  0  0  0
 28 65  1  0  0  0  0
 28 66  1  0  0  0  0
 28 67  1  0  0  0  0
 29 30  1  0  0  0  0
 29 68  1  0  0  0  0
 29 69  1  0  0  0  0
 30 31  1  0  0  0  0
 30 70  1  0  0  0  0
 30 71  1  0  0  0  0
 31 72  1  0  0  0  0
 31 73  1  0  0  0  0
M  END
$$$$
