CHEBI:16243
 OpenBabel04242414033D

 32 34  0  0  0  0  0  0  0  0999 V2000
    1.9390   -1.8855    0.1882 O   0  0  0  0  0  0  0  0  0  0  0  0
    1.5138   -0.7398    0.0839 C   0  0  0  0  0  0  0  0  0  0  0  0
    2.5093    0.3621    0.0268 C   0  0  0  0  0  0  0  0  0  0  0  0
    3.8391   -0.0060    0.1296 O   0  0  0  0  0  0  0  0  0  0  0  0
    2.0823    1.6304   -0.1002 C   0  0  0  0  0  0  0  0  0  0  0  0
    2.9888    2.8006   -0.1604 C   0  0  0  0  0  0  0  0  0  0  0  0
    2.6592    3.9740    0.5477 C   0  0  0  0  0  0  0  0  0  0  0  0
    3.4743    5.1110    0.4922 C   0  0  0  0  0  0  0  0  0  0  0  0
    4.6259    5.0775   -0.2806 C   0  0  0  0  0  0  0  0  0  0  0  0
    5.4647    6.1528   -0.3771 O   0  0  0  0  0  0  0  0  0  0  0  0
    4.9590    3.9290   -0.9921 C   0  0  0  0  0  0  0  0  0  0  0  0
    6.0926    3.9076   -1.7546 O   0  0  0  0  0  0  0  0  0  0  0  0
    4.1528    2.7980   -0.9437 C   0  0  0  0  0  0  0  0  0  0  0  0
    0.7422    1.9841   -0.1652 O   0  0  0  0  0  0  0  0  0  0  0  0
   -0.2120    1.0002   -0.0979 C   0  0  0  0  0  0  0  0  0  0  0  0
   -1.5391    1.4364   -0.1522 C   0  0  0  0  0  0  0  0  0  0  0  0
   -2.5644    0.5015   -0.0869 C   0  0  0  0  0  0  0  0  0  0  0  0
   -3.8740    0.8766   -0.1305 O   0  0  0  0  0  0  0  0  0  0  0  0
   -2.2860   -0.8561    0.0270 C   0  0  0  0  0  0  0  0  0  0  0  0
   -0.9584   -1.2869    0.0798 C   0  0  0  0  0  0  0  0  0  0  0  0
   -0.7047   -2.6234    0.1925 O   0  0  0  0  0  0  0  0  0  0  0  0
    0.0887   -0.3584    0.0201 C   0  0  0  0  0  0  0  0  0  0  0  0
    3.8182   -0.9847    0.2118 H   0  0  0  0  0  0  0  0  0  0  0  0
    1.7586    4.0071    1.1583 H   0  0  0  0  0  0  0  0  0  0  0  0
    3.1922    5.9961    1.0524 H   0  0  0  0  0  0  0  0  0  0  0  0
    5.1064    6.8669    0.1773 H   0  0  0  0  0  0  0  0  0  0  0  0
    6.4952    4.7882   -1.6202 H   0  0  0  0  0  0  0  0  0  0  0  0
    4.4417    1.9225   -1.5189 H   0  0  0  0  0  0  0  0  0  0  0  0
   -1.7492    2.4977   -0.2433 H   0  0  0  0  0  0  0  0  0  0  0  0
   -3.9281    1.8436   -0.2138 H   0  0  0  0  0  0  0  0  0  0  0  0
   -3.1111   -1.5607    0.0749 H   0  0  0  0  0  0  0  0  0  0  0  0
   -1.5363   -3.1242    0.2052 H   0  0  0  0  0  0  0  0  0  0  0  0
  1  2  2  0  0  0  0
  2  3  1  0  0  0  0
  2 22  1  0  0  0  0
  3  4  1  0  0  0  0
  3  5  2  0  0  0  0
  4 23  1  0  0  0  0
  5  6  1  0  0  0  0
  5 14  1  0  0  0  0
  6  7  1  0  0  0  0
  6 13  2  0  0  0  0
  7  8  2  0  0  0  0
  7 24  1  0  0  0  0
  8  9  1  0  0  0  0
  8 25  1  0  0  0  0
  9 10  1  0  0  0  0
  9 11  2  0  0  0  0
 10 26  1  0  0  0  0
 11 12  1  0  0  0  0
 11 13  1  0  0  0  0
 12 27  1  0  0  0  0
 13 28  1  0  0  0  0
 14 15  1  0  0  0  0
 15 16  1  0  0  0  0
 15 22  2  0  0  0  0
 16 17  2  0  0  0  0
 16 29  1  0  0  0  0
 17 18  1  0  0  0  0
 17 19  1  0  0  0  0
 18 30  1  0  0  0  0
 19 20  2  0  0  0  0
 19 31  1  0  0  0  0
 20 21  1  0  0  0  0
 20 22  1  0  0  0  0
 21 32  1  0  0  0  0
M  END
$$$$
