CHEBI:16796
 OpenBabel04242415163D

 33 34  0  0  0  0  0  0  0  0999 V2000
    0.3163    4.0661   -5.0442 C   0  0  0  0  0  0  0  0  0  0  0  0
    1.4667    3.5721   -4.3692 O   0  0  0  0  0  0  0  0  0  0  0  0
    2.4570    3.0486   -5.1574 C   0  0  0  0  0  0  0  0  0  0  0  0
    2.6034    3.2657   -6.5265 C   0  0  0  0  0  0  0  0  0  0  0  0
    3.6599    2.6868   -7.2425 C   0  0  0  0  0  0  0  0  0  0  0  0
    4.5674    1.8899   -6.5362 C   0  0  0  0  0  0  0  0  0  0  0  0
    5.6742    1.2024   -6.9752 N   0  0  0  0  0  0  0  0  0  0  0  0
    6.2758    0.5564   -5.9289 C   0  0  0  0  0  0  0  0  0  0  0  0
    5.5519    0.8183   -4.7814 C   0  0  0  0  0  0  0  0  0  0  0  0
    5.8581    0.3145   -3.4012 C   0  0  0  0  0  0  0  0  0  0  0  0
    6.8084    1.2389   -2.6316 C   0  0  0  0  0  0  0  0  0  0  0  0
    6.2180    2.5303   -2.3253 N   0  0  0  0  0  0  0  0  0  0  0  0
    5.3853    2.6999   -1.2436 C   0  0  0  0  0  0  0  0  0  0  0  0
    4.7724    4.0712   -1.1534 C   0  0  0  0  0  0  0  0  0  0  0  0
    5.1762    1.8320   -0.4024 O   0  0  0  0  0  0  0  0  0  0  0  0
    4.4591    1.6609   -5.1655 C   0  0  0  0  0  0  0  0  0  0  0  0
    3.3850    2.2547   -4.4715 C   0  0  0  0  0  0  0  0  0  0  0  0
   -0.4360    4.3085   -4.2874 H   0  0  0  0  0  0  0  0  0  0  0  0
   -0.1117    3.3078   -5.7088 H   0  0  0  0  0  0  0  0  0  0  0  0
    0.5464    4.9863   -5.5905 H   0  0  0  0  0  0  0  0  0  0  0  0
    1.9087    3.8931   -7.0760 H   0  0  0  0  0  0  0  0  0  0  0  0
    3.7643    2.8561   -8.3094 H   0  0  0  0  0  0  0  0  0  0  0  0
    5.9908    1.1784   -7.9345 H   0  0  0  0  0  0  0  0  0  0  0  0
    7.1657   -0.0380   -6.0891 H   0  0  0  0  0  0  0  0  0  0  0  0
    6.3206   -0.6772   -3.4827 H   0  0  0  0  0  0  0  0  0  0  0  0
    4.9245    0.1776   -2.8424 H   0  0  0  0  0  0  0  0  0  0  0  0
    7.7185    1.4329   -3.2096 H   0  0  0  0  0  0  0  0  0  0  0  0
    7.1011    0.7574   -1.6918 H   0  0  0  0  0  0  0  0  0  0  0  0
    6.1762    3.2069   -3.0779 H   0  0  0  0  0  0  0  0  0  0  0  0
    3.7730    3.9908   -0.7167 H   0  0  0  0  0  0  0  0  0  0  0  0
    4.6747    4.5287   -2.1419 H   0  0  0  0  0  0  0  0  0  0  0  0
    5.3999    4.7044   -0.5210 H   0  0  0  0  0  0  0  0  0  0  0  0
    3.2631    2.0860   -3.4053 H   0  0  0  0  0  0  0  0  0  0  0  0
  1  2  1  0  0  0  0
  1 18  1  0  0  0  0
  1 19  1  0  0  0  0
  1 20  1  0  0  0  0
  2  3  1  0  0  0  0
  3  4  1  0  0  0  0
  3 17  2  0  0  0  0
  4  5  2  0  0  0  0
  4 21  1  0  0  0  0
  5  6  1  0  0  0  0
  5 22  1  0  0  0  0
  6  7  1  0  0  0  0
  6 16  2  0  0  0  0
  7  8  1  0  0  0  0
  7 23  1  0  0  0  0
  8  9  2  0  0  0  0
  8 24  1  0  0  0  0
  9 10  1  0  0  0  0
  9 16  1  0  0  0  0
 10 11  1  0  0  0  0
 10 25  1  0  0  0  0
 10 26  1  0  0  0  0
 11 12  1  0  0  0  0
 11 27  1  0  0  0  0
 11 28  1  0  0  0  0
 12 13  1  0  0  0  0
 12 29  1  0  0  0  0
 13 14  1  0  0  0  0
 13 15  2  0  0  0  0
 14 30  1  0  0  0  0
 14 31  1  0  0  0  0
 14 32  1  0  0  0  0
 16 17  1  0  0  0  0
 17 33  1  0  0  0  0
M  END
$$$$
