CHEBI:15708
 OpenBabel04242413083D

 15 14  0  0  0  0  0  0  0  0999 V2000
    0.4040   -3.4081   -1.7300 O   0  0  0  0  0  0  0  0  0  0  0  0
    0.5024   -2.2361   -1.2378 C   0  0  0  0  0  0  0  0  0  0  0  0
   -0.3539   -1.3100   -1.3089 O   0  5  0  0  0  0  0  0  0  0  0  0
    1.7675   -2.0116   -0.3904 C   0  0  0  0  0  0  0  0  0  0  0  0
    2.4264   -0.9074    0.0486 C   0  0  0  0  0  0  0  0  0  0  0  0
    2.0288    0.5248   -0.2502 C   0  0  0  0  0  0  0  0  0  0  0  0
    3.1149    1.6146   -0.3674 C   0  0  0  0  0  0  0  0  0  0  0  0
    2.9643    2.6346    0.3861 O   0  0  0  0  0  0  0  0  0  0  0  0
    3.9511    1.5082   -1.3197 O   0  5  0  0  0  0  0  0  0  0  0  0
    3.6264   -1.1448    1.0069 C   0  0  0  0  0  0  0  0  0  0  0  0
    3.5687   -0.5470    2.1259 O   0  0  0  0  0  0  0  0  0  0  0  0
    4.4759   -2.0234    0.6508 O   0  5  0  0  0  0  0  0  0  0  0  0
    2.1907   -2.9712   -0.0830 H   0  0  0  0  0  0  0  0  0  0  0  0
    1.3129    0.8402    0.5196 H   0  0  0  0  0  0  0  0  0  0  0  0
    1.4912    0.5604   -1.2062 H   0  0  0  0  0  0  0  0  0  0  0  0
  1  2  2  0  0  0  0
  2  3  1  0  0  0  0
  2  4  1  0  0  0  0
  4  5  2  0  0  0  0
  4 13  1  0  0  0  0
  5  6  1  0  0  0  0
  5 10  1  0  0  0  0
  6  7  1  0  0  0  0
  6 14  1  0  0  0  0
  6 15  1  0  0  0  0
  7  8  2  0  0  0  0
  7  9  1  0  0  0  0
 10 11  2  0  0  0  0
 10 12  1  0  0  0  0
M  CHG  3   3  -1   9  -1  12  -1
M  END
$$$$
