CHEBI:2295
 OpenBabel04242410363D

 50 53  0  0  1  0  0  0  0  0999 V2000
    0.4755   -0.0743    0.2658 C   0  0  0  0  0  0  0  0  0  0  0  0
    2.0121    0.1090    0.2009 C   0  0  2  0  0  0  0  0  0  0  0  0
    2.6320   -0.1788    1.5735 C   0  0  0  0  0  0  0  0  0  0  0  0
    2.5150   -1.6663    1.9331 C   0  0  0  0  0  0  0  0  0  0  0  0
    3.1273   -2.6011    0.8549 C   0  0  1  0  0  0  0  0  0  0  0  0
    2.5563   -2.3168   -0.5609 C   0  0  1  0  0  0  0  0  0  0  0  0
    3.3584   -3.1140   -1.6063 C   0  0  2  0  0  0  0  0  0  0  0  0
    2.7324   -2.9961   -2.8874 O   0  0  0  0  0  0  0  0  0  0  0  0
    3.5578   -4.6007   -1.3011 C   0  0  0  0  0  0  0  0  0  0  0  0
    3.3344   -5.0838    0.1061 C   0  0  0  0  0  0  0  0  0  0  0  0
    3.1753   -6.4124    0.2728 C   0  0  0  0  0  0  0  0  0  0  0  0
    2.6792   -6.9608    1.5555 C   0  0  0  0  0  0  0  0  0  0  0  0
    2.8693   -8.1398    1.8236 O   0  0  0  0  0  0  0  0  0  0  0  0
    1.9040   -6.0355    2.4704 C   0  0  0  0  0  0  0  0  0  0  0  0
    1.8264   -4.5888    1.9588 C   0  0  0  0  0  0  0  0  0  0  0  0
    3.1405   -4.1170    1.2760 C   0  0  2  0  0  0  0  0  0  0  0  0
    4.3185   -4.2752    2.2861 C   0  0  0  0  0  0  0  0  0  0  0  0
    2.7030   -0.7969   -0.8384 C   0  0  2  0  0  0  0  0  0  0  0  0
    2.2438   -0.2079   -2.1705 C   0  0  0  0  0  0  0  0  0  0  0  0
    2.1818    1.3121   -1.9171 C   0  0  0  0  0  0  0  0  0  0  0  0
    2.3039    1.5071   -0.3917 C   0  0  2  0  0  0  0  0  0  0  0  0
    3.6138    1.9675   -0.0692 O   0  0  0  0  0  0  0  0  0  0  0  0
    0.1799   -1.1022    0.4898 H   0  0  0  0  0  0  0  0  0  0  0  0
   -0.0212    0.2027   -0.6696 H   0  0  0  0  0  0  0  0  0  0  0  0
    0.0526    0.5678    1.0478 H   0  0  0  0  0  0  0  0  0  0  0  0
    2.1496    0.4288    2.3484 H   0  0  0  0  0  0  0  0  0  0  0  0
    3.6953    0.0909    1.5856 H   0  0  0  0  0  0  0  0  0  0  0  0
    1.4593   -1.9087    2.0909 H   0  0  0  0  0  0  0  0  0  0  0  0
    3.0159   -1.8202    2.8950 H   0  0  0  0  0  0  0  0  0  0  0  0
    4.1848   -2.2976    0.7878 H   0  0  0  0  0  0  0  0  0  0  0  0
    1.4987   -2.6017   -0.6122 H   0  0  0  0  0  0  0  0  0  0  0  0
    4.3543   -2.6655   -1.7106 H   0  0  0  0  0  0  0  0  0  0  0  0
    1.8168   -3.3156   -2.8072 H   0  0  0  0  0  0  0  0  0  0  0  0
    4.5693   -4.8837   -1.6203 H   0  0  0  0  0  0  0  0  0  0  0  0
    2.8825   -5.1721   -1.9568 H   0  0  0  0  0  0  0  0  0  0  0  0
    3.3344   -7.1389   -0.5166 H   0  0  0  0  0  0  0  0  0  0  0  0
    2.3898   -6.0547    3.4523 H   0  0  0  0  0  0  0  0  0  0  0  0
    0.8916   -6.4381    2.5822 H   0  0  0  0  0  0  0  0  0  0  0  0
    1.5609   -3.9584    2.8134 H   0  0  0  0  0  0  0  0  0  0  0  0
    0.9958   -4.5077    1.2429 H   0  0  0  0  0  0  0  0  0  0  0  0
    4.5422   -5.3165    2.5377 H   0  0  0  0  0  0  0  0  0  0  0  0
    4.0980   -3.7634    3.2297 H   0  0  0  0  0  0  0  0  0  0  0  0
    5.2477   -3.8526    1.8865 H   0  0  0  0  0  0  0  0  0  0  0  0
    3.7863   -0.5984   -0.7901 H   0  0  0  0  0  0  0  0  0  0  0  0
    1.2579   -0.5882   -2.4597 H   0  0  0  0  0  0  0  0  0  0  0  0
    2.9401   -0.4300   -2.9851 H   0  0  0  0  0  0  0  0  0  0  0  0
    1.2253    1.7003   -2.2836 H   0  0  0  0  0  0  0  0  0  0  0  0
    2.9828    1.8277   -2.4584 H   0  0  0  0  0  0  0  0  0  0  0  0
    1.6057    2.2688   -0.0307 H   0  0  0  0  0  0  0  0  0  0  0  0
    4.2631    1.4554   -0.5796 H   0  0  0  0  0  0  0  0  0  0  0  0
  1 23  1  0  0  0  0
  1 24  1  0  0  0  0
  1 25  1  0  0  0  0
  2  3  1  0  0  0  0
  2 18  1  0  0  0  0
  2 21  1  0  0  0  0
  2  1  1  6  0  0  0
  3  4  1  0  0  0  0
  3 26  1  0  0  0  0
  3 27  1  0  0  0  0
  4  5  1  0  0  0  0
  4 28  1  0  0  0  0
  4 29  1  0  0  0  0
  5  6  1  0  0  0  0
  5 16  1  0  0  0  0
  5 30  1  1  0  0  0
  6  7  1  0  0  0  0
  6 18  1  0  0  0  0
  6 31  1  1  0  0  0
  7  9  1  0  0  0  0
  7  8  1  0  0  0  0
  7 32  1  6  0  0  0
  8 33  1  0  0  0  0
  9 10  1  0  0  0  0
  9 34  1  0  0  0  0
  9 35  1  0  0  0  0
 10 11  2  0  0  0  0
 10 16  1  0  0  0  0
 11 12  1  0  0  0  0
 11 36  1  0  0  0  0
 12 14  1  0  0  0  0
 12 13  2  0  0  0  0
 14 15  1  0  0  0  0
 14 37  1  0  0  0  0
 14 38  1  0  0  0  0
 15 16  1  0  0  0  0
 15 39  1  0  0  0  0
 15 40  1  0  0  0  0
 16 17  1  1  0  0  0
 17 41  1  0  0  0  0
 17 42  1  0  0  0  0
 17 43  1  0  0  0  0
 18 19  1  0  0  0  0
 18 44  1  6  0  0  0
 19 20  1  0  0  0  0
 19 45  1  0  0  0  0
 19 46  1  0  0  0  0
 20 21  1  0  0  0  0
 20 47  1  0  0  0  0
 20 48  1  0  0  0  0
 21 22  1  0  0  0  0
 21 49  1  1  0  0  0
 22 50  1  0  0  0  0
M  END
$$$$
