CHEBI:27421
 OpenBabel04252409523D

 25 25  0  0  0  0  0  0  0  0999 V2000
    1.9049   -0.5231    1.3274 N   0  0  0  0  0  0  0  0  0  0  0  0
    2.4079   -0.4577   -0.0453 C   0  0  0  0  0  0  0  0  0  0  0  0
    3.7814   -1.1133   -0.1427 C   0  0  0  0  0  0  0  0  0  0  0  0
    4.2924   -1.0746   -1.5698 C   0  0  0  0  0  0  0  0  0  0  0  0
    3.9908   -0.1739   -2.3530 O   0  0  0  0  0  0  0  0  0  0  0  0
    5.2187   -2.1560   -2.0128 C   0  0  0  0  0  0  0  0  0  0  0  0
    6.1434   -2.6981   -1.1051 C   0  0  0  0  0  0  0  0  0  0  0  0
    7.0109   -3.7165   -1.5065 C   0  0  0  0  0  0  0  0  0  0  0  0
    6.9589   -4.2046   -2.8105 C   0  0  0  0  0  0  0  0  0  0  0  0
    6.0440   -3.6594   -3.7098 C   0  0  0  0  0  0  0  0  0  0  0  0
    5.9743   -4.1315   -4.9969 O   0  0  0  0  0  0  0  0  0  0  0  0
    5.1886   -2.6047   -3.3464 C   0  0  0  0  0  0  0  0  0  0  0  0
    4.1768   -2.2043   -4.2501 N   0  0  0  0  0  0  0  0  0  0  0  0
    0.9700   -0.1148    1.3534 H   0  0  0  0  0  0  0  0  0  0  0  0
    2.4805    0.0670    1.9276 H   0  0  0  0  0  0  0  0  0  0  0  0
    2.4519    0.5903   -0.3627 H   0  0  0  0  0  0  0  0  0  0  0  0
    1.7017   -0.9688   -0.7095 H   0  0  0  0  0  0  0  0  0  0  0  0
    3.7077   -2.1550    0.1908 H   0  0  0  0  0  0  0  0  0  0  0  0
    4.5043   -0.5900    0.4936 H   0  0  0  0  0  0  0  0  0  0  0  0
    6.2053   -2.3340   -0.0829 H   0  0  0  0  0  0  0  0  0  0  0  0
    7.7243   -4.1327   -0.7987 H   0  0  0  0  0  0  0  0  0  0  0  0
    7.6315   -5.0033   -3.1075 H   0  0  0  0  0  0  0  0  0  0  0  0
    6.5304   -4.9239   -5.0669 H   0  0  0  0  0  0  0  0  0  0  0  0
    4.4640   -2.3808   -5.2111 H   0  0  0  0  0  0  0  0  0  0  0  0
    3.8914   -1.2348   -4.0859 H   0  0  0  0  0  0  0  0  0  0  0  0
  1  2  1  0  0  0  0
  1 14  1  0  0  0  0
  1 15  1  0  0  0  0
  2  3  1  0  0  0  0
  2 16  1  0  0  0  0
  2 17  1  0  0  0  0
  3  4  1  0  0  0  0
  3 18  1  0  0  0  0
  3 19  1  0  0  0  0
  4  5  2  0  0  0  0
  4  6  1  0  0  0  0
  6  7  1  0  0  0  0
  6 12  2  0  0  0  0
  7  8  2  0  0  0  0
  7 20  1  0  0  0  0
  8  9  1  0  0  0  0
  8 21  1  0  0  0  0
  9 10  2  0  0  0  0
  9 22  1  0  0  0  0
 10 11  1  0  0  0  0
 10 12  1  0  0  0  0
 11 23  1  0  0  0  0
 12 13  1  0  0  0  0
 13 24  1  0  0  0  0
 13 25  1  0  0  0  0
M  END
$$$$
