CHEBI:17028
 OpenBabel04242415433D

 22 21  0  0  1  0  0  0  0  0999 V2000
    5.9299    0.0503    4.8663 O   0  0  0  0  0  0  0  0  0  0  0  0
    7.0008   -0.0812    4.3092 C   0  0  0  0  0  0  0  0  0  0  0  0
    8.0288   -0.8379    4.7384 O   0  0  0  0  0  0  0  0  0  0  0  0
    7.3483    0.5874    2.9809 C   0  0  0  0  0  0  0  0  0  0  0  0
    8.4300    0.3004    2.4705 O   0  0  0  0  0  0  0  0  0  0  0  0
    6.3499    1.5619    2.4093 C   0  0  0  0  0  0  0  0  0  0  0  0
    6.8896    2.9903    2.3410 C   0  0  1  0  0  0  0  0  0  0  0  0
    7.9968    3.0301    1.4327 O   0  0  0  0  0  0  0  0  0  0  0  0
    7.3067    3.6225    3.6808 C   0  0  2  0  0  0  0  0  0  0  0  0
    8.2510    2.7748    4.3538 O   0  0  0  0  0  0  0  0  0  0  0  0
    6.1304    3.8832    4.6249 C   0  0  0  0  0  0  0  0  0  0  0  0
    6.6448    4.5102    5.8024 O   0  0  0  0  0  0  0  0  0  0  0  0
    8.7754   -0.7472    4.0987 H   0  0  0  0  0  0  0  0  0  0  0  0
    5.4171    1.5342    2.9796 H   0  0  0  0  0  0  0  0  0  0  0  0
    6.1129    1.2010    1.4010 H   0  0  0  0  0  0  0  0  0  0  0  0
    6.1166    3.6227    1.8888 H   0  0  0  0  0  0  0  0  0  0  0  0
    8.7338    2.5441    1.8565 H   0  0  0  0  0  0  0  0  0  0  0  0
    7.8389    4.5622    3.4887 H   0  0  0  0  0  0  0  0  0  0  0  0
    8.3962    3.2143    5.2193 H   0  0  0  0  0  0  0  0  0  0  0  0
    5.6516    2.9507    4.9364 H   0  0  0  0  0  0  0  0  0  0  0  0
    5.3911    4.5461    4.1660 H   0  0  0  0  0  0  0  0  0  0  0  0
    5.8863    4.6737    6.3918 H   0  0  0  0  0  0  0  0  0  0  0  0
  1  2  2  0  0  0  0
  2  3  1  0  0  0  0
  2  4  1  0  0  0  0
  3 13  1  0  0  0  0
  4  5  2  0  0  0  0
  4  6  1  0  0  0  0
  6  7  1  0  0  0  0
  6 14  1  0  0  0  0
  6 15  1  0  0  0  0
  7  8  1  0  0  0  0
  7 16  1  1  0  0  0
  8 17  1  0  0  0  0
  9 11  1  0  0  0  0
  9 10  1  0  0  0  0
  9  7  1  0  0  0  0
  9 18  1  6  0  0  0
 10 19  1  0  0  0  0
 11 12  1  0  0  0  0
 11 20  1  0  0  0  0
 11 21  1  0  0  0  0
 12 22  1  0  0  0  0
M  END
$$$$
