CHEBI:17359
 OpenBabel04242416233D

  4  3  0  0  0  0  0  0  0  0999 V2000
    1.0196   -0.0420    0.1063 O   0  0  0  0  0  0  0  0  0  0  0  0
    2.5703    0.1714   -0.0118 S   0  0  0  0  0  0  0  0  0  0  0  0
    2.9368   -0.1002    1.4902 O   0  5  0  0  0  0  0  0  0  0  0  0
    2.9367   -1.2457   -0.5791 O   0  5  0  0  0  0  0  0  0  0  0  0
  1  2  2  0  0  0  0
  2  3  1  0  0  0  0
  2  4  1  0  0  0  0
M  CHG  2   3  -1   4  -1
M  END
$$$$
