CHEBI:18300
 OpenBabel04252409213D

 12 11  0  0  0  0  0  0  0  0999 V2000
    3.4026   -1.1659    1.0491 O   0  0  0  0  0  0  0  0  0  0  0  0
    2.7335   -0.9348    0.0602 C   0  0  0  0  0  0  0  0  0  0  0  0
    1.4122   -1.1408    0.0074 O   0  0  0  0  0  0  0  0  0  0  0  0
    3.2268   -0.4093   -1.2114 C   0  0  0  0  0  0  0  0  0  0  0  0
    4.4902   -0.0700   -1.5037 C   0  0  0  0  0  0  0  0  0  0  0  0
    5.7634   -0.0810   -0.7567 C   0  0  0  0  0  0  0  0  0  0  0  0
    6.7822    0.3287   -1.2970 O   0  0  0  0  0  0  0  0  0  0  0  0
    5.7661   -0.5490    0.4961 O   0  0  0  0  0  0  0  0  0  0  0  0
    1.1657   -1.4884    0.8907 H   0  0  0  0  0  0  0  0  0  0  0  0
    2.4668   -0.2902   -1.9790 H   0  0  0  0  0  0  0  0  0  0  0  0
    4.6619    0.3095   -2.5118 H   0  0  0  0  0  0  0  0  0  0  0  0
    4.9069   -0.8511    0.8658 H   0  0  0  0  0  0  0  0  0  0  0  0
  1  2  2  0  0  0  0
  2  3  1  0  0  0  0
  2  4  1  0  0  0  0
  3  9  1  0  0  0  0
  4  5  2  0  0  0  0
  4 10  1  0  0  0  0
  5  6  1  0  0  0  0
  5 11  1  0  0  0  0
  6  7  2  0  0  0  0
  6  8  1  0  0  0  0
  8 12  1  0  0  0  0
M  END
$$$$
