CHEBI:16809
 OpenBabel04242415173D

 28 27  0  0  1  0  0  0  0  0999 V2000
    7.3818    3.1650   -3.1184 O   0  0  0  0  0  0  0  0  0  0  0  0
    7.3519    3.2847   -1.8932 C   0  0  0  0  0  0  0  0  0  0  0  0
    8.5874    3.0623   -1.0307 C   0  0  2  0  0  0  0  0  0  0  0  0
    9.6934    2.7376   -1.8944 O   0  0  0  0  0  0  0  0  0  0  0  0
    8.4711    1.9138   -0.0141 C   0  0  1  0  0  0  0  0  0  0  0  0
    8.3392    0.6670   -0.7213 O   0  0  0  0  0  0  0  0  0  0  0  0
    7.3114    2.0265    0.9848 C   0  0  2  0  0  0  0  0  0  0  0  0
    6.0600    1.9686    0.2654 O   0  0  0  0  0  0  0  0  0  0  0  0
    7.2586    0.8726    2.0120 C   0  0  2  0  0  0  0  0  0  0  0  0
    6.0760    1.0524    2.8160 O   0  0  0  0  0  0  0  0  0  0  0  0
    8.4652    0.7722    2.9444 C   0  0  0  0  0  0  0  0  0  0  0  0
    8.6446    1.9982    3.6423 O   0  0  0  0  0  0  0  0  0  0  0  0
    9.7374    2.0092    4.8408 S   0  0  0  0  0  0  0  0  0  0  0  0
    9.3354    1.0463    5.8396 O   0  0  0  0  0  0  0  0  0  0  0  0
   11.0532    2.0022    4.2457 O   0  0  0  0  0  0  0  0  0  0  0  0
    9.4952    3.4519    5.5104 O   0  0  0  0  0  0  0  0  0  0  0  0
    6.4455    3.6428   -1.3802 H   0  0  0  0  0  0  0  0  0  0  0  0
    8.8165    4.0076   -0.5286 H   0  0  0  0  0  0  0  0  0  0  0  0
    9.4185    2.9953   -2.8013 H   0  0  0  0  0  0  0  0  0  0  0  0
    9.4219    1.8566    0.5280 H   0  0  0  0  0  0  0  0  0  0  0  0
    9.0386    0.6892   -1.4102 H   0  0  0  0  0  0  0  0  0  0  0  0
    7.3329    2.9943    1.4978 H   0  0  0  0  0  0  0  0  0  0  0  0
    6.0994    1.1439   -0.2657 H   0  0  0  0  0  0  0  0  0  0  0  0
    7.1231   -0.0849    1.4956 H   0  0  0  0  0  0  0  0  0  0  0  0
    5.3816    1.3606    2.1993 H   0  0  0  0  0  0  0  0  0  0  0  0
    9.3767    0.5360    2.3865 H   0  0  0  0  0  0  0  0  0  0  0  0
    8.2847   -0.0289    3.6705 H   0  0  0  0  0  0  0  0  0  0  0  0
    8.7774    3.3497    6.1684 H   0  0  0  0  0  0  0  0  0  0  0  0
  1  2  2  0  0  0  0
  2 17  1  0  0  0  0
  3  5  1  0  0  0  0
  3  4  1  0  0  0  0
  3  2  1  0  0  0  0
  3 18  1  1  0  0  0
  4 19  1  0  0  0  0
  5  6  1  0  0  0  0
  5 20  1  6  0  0  0
  6 21  1  0  0  0  0
  7  8  1  0  0  0  0
  7  5  1  0  0  0  0
  7 22  1  6  0  0  0
  8 23  1  0  0  0  0
  9 11  1  0  0  0  0
  9 10  1  0  0  0  0
  9  7  1  0  0  0  0
  9 24  1  6  0  0  0
 10 25  1  0  0  0  0
 11 12  1  0  0  0  0
 11 26  1  0  0  0  0
 11 27  1  0  0  0  0
 12 13  1  0  0  0  0
 13 14  2  0  0  0  0
 13 15  2  0  0  0  0
 13 16  1  0  0  0  0
 16 28  1  0  0  0  0
M  END
$$$$
