CHEBI:18401
 OpenBabel04252409343D

 17 17  0  0  0  0  0  0  0  0999 V2000
    2.2662    2.2003    1.0480 O   0  0  0  0  0  0  0  0  0  0  0  0
    2.4806    1.0297    0.6156 C   0  0  0  0  0  0  0  0  0  0  0  0
    2.0822   -0.0797    1.0774 O   0  5  0  0  0  0  0  0  0  0  0  0
    3.2715    0.9498   -0.6895 C   0  0  0  0  0  0  0  0  0  0  0  0
    4.7513    0.7933   -0.4447 C   0  0  0  0  0  0  0  0  0  0  0  0
    5.3180   -0.4804   -0.3138 C   0  0  0  0  0  0  0  0  0  0  0  0
    6.6879   -0.6267   -0.0910 C   0  0  0  0  0  0  0  0  0  0  0  0
    7.5017    0.5006    0.0132 C   0  0  0  0  0  0  0  0  0  0  0  0
    6.9435    1.7740   -0.0935 C   0  0  0  0  0  0  0  0  0  0  0  0
    5.5736    1.9195   -0.3167 C   0  0  0  0  0  0  0  0  0  0  0  0
    3.0863    1.8486   -1.2914 H   0  0  0  0  0  0  0  0  0  0  0  0
    2.9028    0.1109   -1.2937 H   0  0  0  0  0  0  0  0  0  0  0  0
    4.6787   -1.3594   -0.3659 H   0  0  0  0  0  0  0  0  0  0  0  0
    7.1118   -1.6203    0.0150 H   0  0  0  0  0  0  0  0  0  0  0  0
    8.5656    0.3875    0.1958 H   0  0  0  0  0  0  0  0  0  0  0  0
    7.5674    2.6561    0.0107 H   0  0  0  0  0  0  0  0  0  0  0  0
    5.1341    2.9133   -0.3721 H   0  0  0  0  0  0  0  0  0  0  0  0
  1  2  2  0  0  0  0
  2  3  1  0  0  0  0
  2  4  1  0  0  0  0
  4  5  1  0  0  0  0
  4 11  1  0  0  0  0
  4 12  1  0  0  0  0
  5  6  1  0  0  0  0
  5 10  2  0  0  0  0
  6  7  2  0  0  0  0
  6 13  1  0  0  0  0
  7  8  1  0  0  0  0
  7 14  1  0  0  0  0
  8  9  2  0  0  0  0
  8 15  1  0  0  0  0
  9 10  1  0  0  0  0
  9 16  1  0  0  0  0
 10 17  1  0  0  0  0
M  CHG  1   3  -1
M  END
$$$$
