CHEBI:15446
 OpenBabel04242411543D

 23 23  0  0  1  0  0  0  0  0999 V2000
    1.1373   -0.6153    0.0839 H   0  0  0  0  0  0  0  0  0  0  0  0
    1.7826    0.1099   -0.0542 O   0  0  0  0  0  0  0  0  0  0  0  0
    2.4305   -0.1079   -1.3345 C   0  0  2  0  0  0  0  0  0  0  0  0
    1.3803    0.0294   -2.4457 C   0  0  2  0  0  0  0  0  0  0  0  0
    0.6785    1.2767   -2.3291 O   0  0  0  0  0  0  0  0  0  0  0  0
    0.3488   -1.1087   -2.3989 C   0  0  1  0  0  0  0  0  0  0  0  0
   -0.4514   -1.0794   -3.5889 O   0  0  0  0  0  0  0  0  0  0  0  0
    1.0574   -2.4695   -2.2659 C   0  0  1  0  0  0  0  0  0  0  0  0
    1.7074   -2.7939   -3.4869 O   0  0  0  0  0  0  0  0  0  0  0  0
    1.9815   -2.4579   -1.1743 O   0  0  0  0  0  0  0  0  0  0  0  0
    3.0381   -1.5112   -1.3702 C   0  0  2  0  0  0  0  0  0  0  0  0
    4.1529   -1.6839   -0.3314 C   0  0  0  0  0  0  0  0  0  0  0  0
    5.1670   -2.3386   -0.5376 O   0  0  0  0  0  0  0  0  0  0  0  0
    3.9358   -1.0809    0.8619 O   0  0  0  0  0  0  0  0  0  0  0  0
    3.1943    0.6712   -1.4294 H   0  0  0  0  0  0  0  0  0  0  0  0
    1.8715    0.0406   -3.4258 H   0  0  0  0  0  0  0  0  0  0  0  0
    0.7378    1.5558   -1.3931 H   0  0  0  0  0  0  0  0  0  0  0  0
   -0.3278   -0.9584   -1.5494 H   0  0  0  0  0  0  0  0  0  0  0  0
   -0.7285   -0.1462   -3.6972 H   0  0  0  0  0  0  0  0  0  0  0  0
    0.3177   -3.2542   -2.0772 H   0  0  0  0  0  0  0  0  0  0  0  0
    1.0511   -2.5858   -4.1825 H   0  0  0  0  0  0  0  0  0  0  0  0
    3.5211   -1.6741   -2.3427 H   0  0  0  0  0  0  0  0  0  0  0  0
    3.1078   -0.5509    0.8950 H   0  0  0  0  0  0  0  0  0  0  0  0
  1  2  1  0  0  0  0
  2  3  1  0  0  0  0
  3  4  1  0  0  0  0
  3 11  1  0  0  0  0
  3 15  1  6  0  0  0
  4  6  1  0  0  0  0
  4  5  1  0  0  0  0
  4 16  1  6  0  0  0
  5 17  1  0  0  0  0
  6  7  1  0  0  0  0
  6  8  1  0  0  0  0
  6 18  1  1  0  0  0
  7 19  1  0  0  0  0
  8  9  1  0  0  0  0
  8 10  1  0  0  0  0
  8 20  1  1  0  0  0
  9 21  1  0  0  0  0
 10 11  1  0  0  0  0
 11 12  1  0  0  0  0
 11 22  1  6  0  0  0
 12 13  2  0  0  0  0
 12 14  1  0  0  0  0
 14 23  1  0  0  0  0
M  END
$$$$
