CHEBI:18131
 OpenBabel04242423343D

 32 33  0  0  0  0  0  0  0  0999 V2000
   -0.0070    0.9229   -0.5791 O   0  0  0  0  0  0  0  0  0  0  0  0
    0.1899   -0.0749    0.1124 C   0  0  0  0  0  0  0  0  0  0  0  0
    1.5301   -0.3958    0.7296 C   0  0  0  0  0  0  0  0  0  0  0  0
    2.5924    0.6532    0.5174 C   0  0  0  0  0  0  0  0  0  0  0  0
    3.6504    0.3605   -0.0468 O   0  0  0  0  0  0  0  0  0  0  0  0
    2.4103    2.0497    1.0178 C   0  0  0  0  0  0  0  0  0  0  0  0
    3.1797    3.0495    0.3953 C   0  0  0  0  0  0  0  0  0  0  0  0
    3.0948    4.3816    0.8067 C   0  0  0  0  0  0  0  0  0  0  0  0
    2.2409    4.7147    1.8497 C   0  0  0  0  0  0  0  0  0  0  0  0
    2.1298    5.9987    2.2945 O   0  0  0  0  0  0  0  0  0  0  0  0
    1.4729    3.7434    2.4835 C   0  0  0  0  0  0  0  0  0  0  0  0
    1.5580    2.4102    2.0696 C   0  0  0  0  0  0  0  0  0  0  0  0
    0.8157    1.4731    2.7347 O   0  0  0  0  0  0  0  0  0  0  0  0
   -0.9189   -1.0594    0.2815 C   0  0  0  0  0  0  0  0  0  0  0  0
   -1.9362   -1.0862   -0.6849 C   0  0  0  0  0  0  0  0  0  0  0  0
   -2.9815   -2.0085   -0.5892 C   0  0  0  0  0  0  0  0  0  0  0  0
   -3.0117   -2.8941    0.4821 C   0  0  0  0  0  0  0  0  0  0  0  0
   -4.0081   -3.8137    0.6170 O   0  0  0  0  0  0  0  0  0  0  0  0
   -2.0198   -2.8690    1.4561 C   0  0  0  0  0  0  0  0  0  0  0  0
   -0.9685   -1.9533    1.3577 C   0  0  0  0  0  0  0  0  0  0  0  0
    1.8873   -1.3145    0.2458 H   0  0  0  0  0  0  0  0  0  0  0  0
    1.4581   -0.6049    1.7982 H   0  0  0  0  0  0  0  0  0  0  0  0
    3.8506    2.7892   -0.4222 H   0  0  0  0  0  0  0  0  0  0  0  0
    3.6994    5.1310    0.3055 H   0  0  0  0  0  0  0  0  0  0  0  0
    2.7111    6.5654    1.7597 H   0  0  0  0  0  0  0  0  0  0  0  0
    0.8239    4.0436    3.3005 H   0  0  0  0  0  0  0  0  0  0  0  0
    0.2532    1.9276    3.3866 H   0  0  0  0  0  0  0  0  0  0  0  0
   -1.9101   -0.3938   -1.5250 H   0  0  0  0  0  0  0  0  0  0  0  0
   -3.7518   -2.0190   -1.3540 H   0  0  0  0  0  0  0  0  0  0  0  0
   -4.6121   -3.7339   -0.1398 H   0  0  0  0  0  0  0  0  0  0  0  0
   -2.0648   -3.5633    2.2913 H   0  0  0  0  0  0  0  0  0  0  0  0
   -0.2155   -1.9526    2.1391 H   0  0  0  0  0  0  0  0  0  0  0  0
  1  2  2  0  0  0  0
  2  3  1  0  0  0  0
  2 14  1  0  0  0  0
  3  4  1  0  0  0  0
  3 21  1  0  0  0  0
  3 22  1  0  0  0  0
  4  5  2  0  0  0  0
  4  6  1  0  0  0  0
  6  7  1  0  0  0  0
  6 12  2  0  0  0  0
  7  8  2  0  0  0  0
  7 23  1  0  0  0  0
  8  9  1  0  0  0  0
  8 24  1  0  0  0  0
  9 10  1  0  0  0  0
  9 11  2  0  0  0  0
 10 25  1  0  0  0  0
 11 12  1  0  0  0  0
 11 26  1  0  0  0  0
 12 13  1  0  0  0  0
 13 27  1  0  0  0  0
 14 15  1  0  0  0  0
 14 20  2  0  0  0  0
 15 16  2  0  0  0  0
 15 28  1  0  0  0  0
 16 17  1  0  0  0  0
 16 29  1  0  0  0  0
 17 18  1  0  0  0  0
 17 19  2  0  0  0  0
 18 30  1  0  0  0  0
 19 20  1  0  0  0  0
 19 31  1  0  0  0  0
 20 32  1  0  0  0  0
M  END
$$$$
