CHEBI:17895
 OpenBabel04242423143D

 24 24  0  0  1  0  0  0  0  0999 V2000
    1.9275    3.5087   -0.2764 N   0  0  0  0  0  0  0  0  0  0  0  0
    2.9967    2.6537    0.3371 C   0  0  1  0  0  0  0  0  0  0  0  0
    2.5128    1.8817    1.5748 C   0  0  0  0  0  0  0  0  0  0  0  0
    2.0815    2.7752    2.7160 C   0  0  0  0  0  0  0  0  0  0  0  0
    0.7446    2.7958    3.1404 C   0  0  0  0  0  0  0  0  0  0  0  0
    0.3491    3.6119    4.2036 C   0  0  0  0  0  0  0  0  0  0  0  0
    1.2926    4.4082    4.8434 C   0  0  0  0  0  0  0  0  0  0  0  0
    0.9527    5.2146    5.8884 O   0  0  0  0  0  0  0  0  0  0  0  0
    2.6209    4.4008    4.4380 C   0  0  0  0  0  0  0  0  0  0  0  0
    3.0172    3.5829    3.3792 C   0  0  0  0  0  0  0  0  0  0  0  0
    3.4942    1.6694   -0.7334 C   0  0  0  0  0  0  0  0  0  0  0  0
    4.1619    0.6699   -0.5253 O   0  0  0  0  0  0  0  0  0  0  0  0
    3.1164    2.0709   -1.9767 O   0  0  0  0  0  0  0  0  0  0  0  0
    1.7629    4.2864    0.3741 H   0  0  0  0  0  0  0  0  0  0  0  0
    1.0462    2.9845   -0.2409 H   0  0  0  0  0  0  0  0  0  0  0  0
    3.8445    3.3057    0.5771 H   0  0  0  0  0  0  0  0  0  0  0  0
    3.3105    1.2239    1.9449 H   0  0  0  0  0  0  0  0  0  0  0  0
    1.6911    1.2090    1.2937 H   0  0  0  0  0  0  0  0  0  0  0  0
    0.0007    2.1683    2.6541 H   0  0  0  0  0  0  0  0  0  0  0  0
   -0.6894    3.6079    4.5193 H   0  0  0  0  0  0  0  0  0  0  0  0
    0.0136    5.0785    6.0946 H   0  0  0  0  0  0  0  0  0  0  0  0
    3.3487    5.0225    4.9521 H   0  0  0  0  0  0  0  0  0  0  0  0
    4.0650    3.5747    3.0863 H   0  0  0  0  0  0  0  0  0  0  0  0
    2.5897    2.8995   -1.8417 H   0  0  0  0  0  0  0  0  0  0  0  0
  1  2  1  0  0  0  0
  1 14  1  0  0  0  0
  1 15  1  0  0  0  0
  2  3  1  0  0  0  0
  2 11  1  0  0  0  0
  2 16  1  1  0  0  0
  3  4  1  0  0  0  0
  3 17  1  0  0  0  0
  3 18  1  0  0  0  0
  4  5  1  0  0  0  0
  4 10  2  0  0  0  0
  5  6  2  0  0  0  0
  5 19  1  0  0  0  0
  6  7  1  0  0  0  0
  6 20  1  0  0  0  0
  7  8  1  0  0  0  0
  7  9  2  0  0  0  0
  8 21  1  0  0  0  0
  9 10  1  0  0  0  0
  9 22  1  0  0  0  0
 10 23  1  0  0  0  0
 11 12  2  0  0  0  0
 11 13  1  0  0  0  0
 13 24  1  0  0  0  0
M  END
$$$$
