CHEBI:16074
 OpenBabel04242413463D

 74 77  0  0  1  0  0  0  0  0999 V2000
   10.9685   -2.2856   -7.6629 C   0  0  0  0  0  0  0  0  0  0  0  0
   10.3177   -3.5180   -7.0336 C   0  0  0  0  0  0  0  0  0  0  0  0
   11.2455   -4.7261   -7.1846 C   0  0  0  0  0  0  0  0  0  0  0  0
    9.9730   -3.3064   -5.5476 C   0  0  0  0  0  0  0  0  0  0  0  0
    8.9230   -2.2129   -5.3142 C   0  0  0  0  0  0  0  0  0  0  0  0
    8.5196   -2.1452   -3.8345 C   0  0  0  0  0  0  0  0  0  0  0  0
    7.5687   -0.9650   -3.4847 C   0  0  1  0  0  0  0  0  0  0  0  0
    6.2241   -1.1513   -4.1935 C   0  0  0  0  0  0  0  0  0  0  0  0
    7.4175   -0.8405   -1.9343 C   0  0  1  0  0  0  0  0  0  0  0  0
    8.7915   -0.5947   -1.2559 C   0  0  0  0  0  0  0  0  0  0  0  0
    8.5542    0.2963   -0.0397 C   0  0  0  0  0  0  0  0  0  0  0  0
    7.0341    0.3415    0.1503 C   0  0  1  0  0  0  0  0  0  0  0  0
    6.5399   -0.8168    1.0744 C   0  0  2  0  0  0  0  0  0  0  0  0
    6.9918   -0.5823    2.5295 C   0  0  0  0  0  0  0  0  0  0  0  0
    6.4966   -1.6666    3.4803 C   0  0  0  0  0  0  0  0  0  0  0  0
    4.9739   -1.7901    3.4197 C   0  0  2  0  0  0  0  0  0  0  0  0
    4.4641   -2.7716    4.4784 C   0  0  0  0  0  0  0  0  0  0  0  0
    2.9555   -2.8506    4.4398 C   0  0  0  0  0  0  0  0  0  0  0  0
    2.2931   -2.9081    5.4754 O   0  0  0  0  0  0  0  0  0  0  0  0
    2.3080   -3.0237    3.0860 C   0  0  0  0  0  0  0  0  0  0  0  0
    2.9083   -2.0845    2.0416 C   0  0  0  0  0  0  0  0  0  0  0  0
    4.4641   -2.1154    1.9810 C   0  0  1  0  0  0  0  0  0  0  0  0
    4.9156   -3.5180    1.5025 C   0  0  0  0  0  0  0  0  0  0  0  0
    4.9978   -0.9931    1.0082 C   0  0  1  0  0  0  0  0  0  0  0  0
    4.5651   -1.1888   -0.4532 C   0  0  0  0  0  0  0  0  0  0  0  0
    4.9914   -0.0087   -1.3158 C   0  0  0  0  0  0  0  0  0  0  0  0
    6.5059    0.2733   -1.3182 C   0  0  2  0  0  0  0  0  0  0  0  0
    6.7242    1.6319   -2.0290 C   0  0  0  0  0  0  0  0  0  0  0  0
   11.2625   -2.4883   -8.6985 H   0  0  0  0  0  0  0  0  0  0  0  0
   11.8650   -1.9843   -7.1105 H   0  0  0  0  0  0  0  0  0  0  0  0
   10.2784   -1.4369   -7.6834 H   0  0  0  0  0  0  0  0  0  0  0  0
    9.3925   -3.7357   -7.5821 H   0  0  0  0  0  0  0  0  0  0  0  0
   12.1938   -4.5676   -6.6599 H   0  0  0  0  0  0  0  0  0  0  0  0
   11.4693   -4.9157   -8.2399 H   0  0  0  0  0  0  0  0  0  0  0  0
   10.7787   -5.6291   -6.7770 H   0  0  0  0  0  0  0  0  0  0  0  0
   10.8844   -3.0633   -4.9865 H   0  0  0  0  0  0  0  0  0  0  0  0
    9.5929   -4.2502   -5.1356 H   0  0  0  0  0  0  0  0  0  0  0  0
    8.0509   -2.4273   -5.9394 H   0  0  0  0  0  0  0  0  0  0  0  0
    9.3207   -1.2392   -5.6202 H   0  0  0  0  0  0  0  0  0  0  0  0
    9.4429   -2.0641   -3.2509 H   0  0  0  0  0  0  0  0  0  0  0  0
    8.0486   -3.0922   -3.5410 H   0  0  0  0  0  0  0  0  0  0  0  0
    8.0268   -0.0442   -3.8678 H   0  0  0  0  0  0  0  0  0  0  0  0
    5.6572   -1.9800   -3.7567 H   0  0  0  0  0  0  0  0  0  0  0  0
    6.3450   -1.3546   -5.2605 H   0  0  0  0  0  0  0  0  0  0  0  0
    5.6198   -0.2439   -4.1419 H   0  0  0  0  0  0  0  0  0  0  0  0
    7.0598   -1.8155   -1.5784 H   0  0  0  0  0  0  0  0  0  0  0  0
    9.5051   -0.1050   -1.9285 H   0  0  0  0  0  0  0  0  0  0  0  0
    9.2330   -1.5491   -0.9463 H   0  0  0  0  0  0  0  0  0  0  0  0
    8.9329    1.3050   -0.2455 H   0  0  0  0  0  0  0  0  0  0  0  0
    9.1125   -0.0650    0.8265 H   0  0  0  0  0  0  0  0  0  0  0  0
    6.7447    1.2942    0.6129 H   0  0  0  0  0  0  0  0  0  0  0  0
    7.0105   -1.7476    0.7349 H   0  0  0  0  0  0  0  0  0  0  0  0
    6.6255    0.3931    2.8753 H   0  0  0  0  0  0  0  0  0  0  0  0
    8.0831   -0.5470    2.6007 H   0  0  0  0  0  0  0  0  0  0  0  0
    6.8091   -1.4092    4.4998 H   0  0  0  0  0  0  0  0  0  0  0  0
    6.9765   -2.6226    3.2409 H   0  0  0  0  0  0  0  0  0  0  0  0
    4.5654   -0.8039    3.6920 H   0  0  0  0  0  0  0  0  0  0  0  0
    4.7608   -2.4249    5.4754 H   0  0  0  0  0  0  0  0  0  0  0  0
    4.8729   -3.7779    4.3456 H   0  0  0  0  0  0  0  0  0  0  0  0
    1.2364   -2.8164    3.1824 H   0  0  0  0  0  0  0  0  0  0  0  0
    2.4164   -4.0710    2.7867 H   0  0  0  0  0  0  0  0  0  0  0  0
    2.5796   -1.0609    2.2670 H   0  0  0  0  0  0  0  0  0  0  0  0
    2.4741   -2.3430    1.0696 H   0  0  0  0  0  0  0  0  0  0  0  0
    4.6410   -4.3093    2.2053 H   0  0  0  0  0  0  0  0  0  0  0  0
    5.9976   -3.5839    1.3633 H   0  0  0  0  0  0  0  0  0  0  0  0
    4.4452   -3.7804    0.5487 H   0  0  0  0  0  0  0  0  0  0  0  0
    4.5541   -0.0444    1.3481 H   0  0  0  0  0  0  0  0  0  0  0  0
    3.4757   -1.2712   -0.5217 H   0  0  0  0  0  0  0  0  0  0  0  0
    4.9758   -2.1145   -0.8678 H   0  0  0  0  0  0  0  0  0  0  0  0
    4.4663    0.8821   -0.9424 H   0  0  0  0  0  0  0  0  0  0  0  0
    4.6084   -0.1620   -2.3263 H   0  0  0  0  0  0  0  0  0  0  0  0
    6.2740    1.6383   -3.0266 H   0  0  0  0  0  0  0  0  0  0  0  0
    7.7828    1.8800   -2.1522 H   0  0  0  0  0  0  0  0  0  0  0  0
    6.2611    2.4472   -1.4613 H   0  0  0  0  0  0  0  0  0  0  0  0
  1  2  1  0  0  0  0
  1 29  1  0  0  0  0
  1 30  1  0  0  0  0
  1 31  1  0  0  0  0
  2  3  1  0  0  0  0
  2  4  1  0  0  0  0
  2 32  1  0  0  0  0
  3 33  1  0  0  0  0
  3 34  1  0  0  0  0
  3 35  1  0  0  0  0
  4  5  1  0  0  0  0
  4 36  1  0  0  0  0
  4 37  1  0  0  0  0
  5  6  1  0  0  0  0
  5 38  1  0  0  0  0
  5 39  1  0  0  0  0
  6 40  1  0  0  0  0
  6 41  1  0  0  0  0
  7  8  1  0  0  0  0
  7  6  1  0  0  0  0
  7 42  1  6  0  0  0
  8 43  1  0  0  0  0
  8 44  1  0  0  0  0
  8 45  1  0  0  0  0
  9 10  1  0  0  0  0
  9 27  1  0  0  0  0
  9  7  1  0  0  0  0
  9 46  1  1  0  0  0
 10 11  1  0  0  0  0
 10 47  1  0  0  0  0
 10 48  1  0  0  0  0
 11 12  1  0  0  0  0
 11 49  1  0  0  0  0
 11 50  1  0  0  0  0
 12 13  1  0  0  0  0
 12 27  1  0  0  0  0
 12 51  1  6  0  0  0
 13 14  1  0  0  0  0
 13 24  1  0  0  0  0
 13 52  1  1  0  0  0
 14 15  1  0  0  0  0
 14 53  1  0  0  0  0
 14 54  1  0  0  0  0
 15 16  1  0  0  0  0
 15 55  1  0  0  0  0
 15 56  1  0  0  0  0
 16 17  1  0  0  0  0
 16 22  1  0  0  0  0
 16 57  1  1  0  0  0
 17 18  1  0  0  0  0
 17 58  1  0  0  0  0
 17 59  1  0  0  0  0
 18 20  1  0  0  0  0
 18 19  2  0  0  0  0
 20 21  1  0  0  0  0
 20 60  1  0  0  0  0
 20 61  1  0  0  0  0
 21 22  1  0  0  0  0
 21 62  1  0  0  0  0
 21 63  1  0  0  0  0
 22 24  1  0  0  0  0
 22 23  1  1  0  0  0
 23 64  1  0  0  0  0
 23 65  1  0  0  0  0
 23 66  1  0  0  0  0
 24 25  1  0  0  0  0
 24 67  1  6  0  0  0
 25 26  1  0  0  0  0
 25 68  1  0  0  0  0
 25 69  1  0  0  0  0
 26 27  1  0  0  0  0
 26 70  1  0  0  0  0
 26 71  1  0  0  0  0
 27 28  1  6  0  0  0
 28 72  1  0  0  0  0
 28 73  1  0  0  0  0
 28 74  1  0  0  0  0
M  END
$$$$
