CHEBI:16806
 OpenBabel04242415173D

 17 18  0  0  0  0  0  0  0  0999 V2000
    2.8905   -1.0114   -0.3928 O   0  0  0  0  0  0  0  0  0  0  0  0
    2.3144    0.0625   -0.0207 C   0  0  0  0  0  0  0  0  0  0  0  0
    1.3177    0.1633    0.7541 O   0  5  0  0  0  0  0  0  0  0  0  0
    2.9133    1.3053   -0.5835 C   0  0  0  0  0  0  0  0  0  0  0  0
    2.5626    2.5787   -0.4032 N   0  0  0  0  0  0  0  0  0  0  0  0
    3.4482    3.2724   -1.1500 C   0  0  0  0  0  0  0  0  0  0  0  0
    3.4929    4.6263   -1.2861 N   0  0  0  0  0  0  0  0  0  0  0  0
    4.4461    5.2109   -2.0778 C   0  0  0  0  0  0  0  0  0  0  0  0
    4.5193    6.4296   -2.2261 O   0  0  0  0  0  0  0  0  0  0  0  0
    5.3371    4.3677   -2.7143 N   0  0  0  0  0  0  0  0  0  0  0  0
    5.3670    2.9870   -2.6348 C   0  0  0  0  0  0  0  0  0  0  0  0
    6.1997    2.3193   -3.2386 O   0  0  0  0  0  0  0  0  0  0  0  0
    4.3453    2.4745   -1.7947 C   0  0  0  0  0  0  0  0  0  0  0  0
    4.0021    1.2107   -1.4311 N   0  0  0  0  0  0  0  0  0  0  0  0
    2.8088    5.1768   -0.7902 H   0  0  0  0  0  0  0  0  0  0  0  0
    6.0349    4.8017   -3.2943 H   0  0  0  0  0  0  0  0  0  0  0  0
    4.4182    0.3238   -1.6915 H   0  0  0  0  0  0  0  0  0  0  0  0
  1  2  2  0  0  0  0
  2  3  1  0  0  0  0
  2  4  1  0  0  0  0
  4  5  2  0  0  0  0
  4 14  1  0  0  0  0
  5  6  1  0  0  0  0
  6  7  1  0  0  0  0
  6 13  2  0  0  0  0
  7  8  1  0  0  0  0
  7 15  1  0  0  0  0
  8  9  2  0  0  0  0
  8 10  1  0  0  0  0
 10 11  1  0  0  0  0
 10 16  1  0  0  0  0
 11 12  2  0  0  0  0
 11 13  1  0  0  0  0
 13 14  1  0  0  0  0
 14 17  1  0  0  0  0
M  CHG  1   3  -1
M  END
$$$$
