CHEBI:17045
 OpenBabel04242415453D

  3  2  0  0  0  0  0  0  0  0999 V2000
    1.1403    0.0715   -0.0387 N   0  0  0  0  0  0  0  0  0  0  0  0
    2.2523    0.0715   -0.0387 N   0  3  0  0  0  0  0  0  0  0  0  0
    3.5882    0.0715   -0.0387 O   0  5  0  0  0  0  0  0  0  0  0  0
  1  2  3  0  0  0  0
  2  3  1  0  0  0  0
M  CHG  2   2   1   3  -1
M  END
$$$$
