CHEBI:4046
 OpenBabel04242410573D

 43 46  0  0  0  0  0  0  0  0999 V2000
    1.0681    0.1751    0.2170 C   0  0  0  0  0  0  0  0  0  0  0  0
    2.5134    0.1195    0.0146 N   0  0  0  0  0  0  0  0  0  0  0  0
    2.9753   -1.2388   -0.3172 C   0  0  0  0  0  0  0  0  0  0  0  0
    2.6150   -1.7215   -1.7343 C   0  0  0  0  0  0  0  0  0  0  0  0
    3.0648   -0.7340   -2.8048 C   0  0  0  0  0  0  0  0  0  0  0  0
    3.8235   -1.0591   -3.8866 C   0  0  0  0  0  0  0  0  0  0  0  0
    4.3166   -2.4457   -4.0902 C   0  0  0  0  0  0  0  0  0  0  0  0
    3.4139   -3.4716   -4.4164 C   0  0  0  0  0  0  0  0  0  0  0  0
    3.8666   -4.7749   -4.6174 C   0  0  0  0  0  0  0  0  0  0  0  0
    5.2242   -5.0618   -4.5055 C   0  0  0  0  0  0  0  0  0  0  0  0
    6.1328   -4.0433   -4.2072 C   0  0  0  0  0  0  0  0  0  0  0  0
    5.6967   -2.7226   -4.0180 C   0  0  0  0  0  0  0  0  0  0  0  0
    6.7111   -1.6955   -3.7096 C   0  0  0  0  0  0  0  0  0  0  0  0
    6.7055   -0.4086   -4.1005 C   0  0  0  0  0  0  0  0  0  0  0  0
    5.6836    0.2654   -4.9255 C   0  0  0  0  0  0  0  0  0  0  0  0
    6.1094    1.2612   -5.8183 C   0  0  0  0  0  0  0  0  0  0  0  0
    5.1933    1.9345   -6.6303 C   0  0  0  0  0  0  0  0  0  0  0  0
    3.8383    1.6230   -6.5603 C   0  0  0  0  0  0  0  0  0  0  0  0
    3.3957    0.6480   -5.6673 C   0  0  0  0  0  0  0  0  0  0  0  0
    4.3060   -0.0159   -4.8280 C   0  0  0  0  0  0  0  0  0  0  0  0
    2.6052    0.6786   -2.4627 C   0  0  0  0  0  0  0  0  0  0  0  0
    2.9660    1.0676   -1.0172 C   0  0  0  0  0  0  0  0  0  0  0  0
    0.7718   -0.4960    1.0310 H   0  0  0  0  0  0  0  0  0  0  0  0
    0.4921   -0.0972   -0.6728 H   0  0  0  0  0  0  0  0  0  0  0  0
    0.7651    1.1832    0.5214 H   0  0  0  0  0  0  0  0  0  0  0  0
    2.5902   -1.9538    0.4207 H   0  0  0  0  0  0  0  0  0  0  0  0
    4.0676   -1.2642   -0.2037 H   0  0  0  0  0  0  0  0  0  0  0  0
    1.5302   -1.8583   -1.8212 H   0  0  0  0  0  0  0  0  0  0  0  0
    3.0593   -2.7127   -1.8565 H   0  0  0  0  0  0  0  0  0  0  0  0
    2.3528   -3.2537   -4.5109 H   0  0  0  0  0  0  0  0  0  0  0  0
    3.1606   -5.5639   -4.8625 H   0  0  0  0  0  0  0  0  0  0  0  0
    5.5801   -6.0770   -4.6607 H   0  0  0  0  0  0  0  0  0  0  0  0
    7.1907   -4.2875   -4.1415 H   0  0  0  0  0  0  0  0  0  0  0  0
    7.5565   -2.0468   -3.1216 H   0  0  0  0  0  0  0  0  0  0  0  0
    7.5466    0.2172   -3.8093 H   0  0  0  0  0  0  0  0  0  0  0  0
    7.1652    1.5091   -5.9022 H   0  0  0  0  0  0  0  0  0  0  0  0
    5.5414    2.6948   -7.3248 H   0  0  0  0  0  0  0  0  0  0  0  0
    3.1266    2.1367   -7.2010 H   0  0  0  0  0  0  0  0  0  0  0  0
    2.3367    0.4059   -5.6220 H   0  0  0  0  0  0  0  0  0  0  0  0
    1.5196    0.7359   -2.6085 H   0  0  0  0  0  0  0  0  0  0  0  0
    3.0423    1.4380   -3.1163 H   0  0  0  0  0  0  0  0  0  0  0  0
    2.5741    2.0693   -0.8002 H   0  0  0  0  0  0  0  0  0  0  0  0
    4.0579    1.1598   -0.9396 H   0  0  0  0  0  0  0  0  0  0  0  0
  1  2  1  0  0  0  0
  1 23  1  0  0  0  0
  1 24  1  0  0  0  0
  1 25  1  0  0  0  0
  2  3  1  0  0  0  0
  2 22  1  0  0  0  0
  3  4  1  0  0  0  0
  3 26  1  0  0  0  0
  3 27  1  0  0  0  0
  4  5  1  0  0  0  0
  4 28  1  0  0  0  0
  4 29  1  0  0  0  0
  5  6  2  0  0  0  0
  5 21  1  0  0  0  0
  6  7  1  0  0  0  0
  6 20  1  0  0  0  0
  7  8  1  0  0  0  0
  7 12  2  0  0  0  0
  8  9  2  0  0  0  0
  8 30  1  0  0  0  0
  9 10  1  0  0  0  0
  9 31  1  0  0  0  0
 10 11  2  0  0  0  0
 10 32  1  0  0  0  0
 11 12  1  0  0  0  0
 11 33  1  0  0  0  0
 12 13  1  0  0  0  0
 13 14  2  0  0  0  0
 13 34  1  0  0  0  0
 14 15  1  0  0  0  0
 14 35  1  0  0  0  0
 15 16  1  0  0  0  0
 15 20  2  0  0  0  0
 16 17  2  0  0  0  0
 16 36  1  0  0  0  0
 17 18  1  0  0  0  0
 17 37  1  0  0  0  0
 18 19  2  0  0  0  0
 18 38  1  0  0  0  0
 19 20  1  0  0  0  0
 19 39  1  0  0  0  0
 21 22  1  0  0  0  0
 21 40  1  0  0  0  0
 21 41  1  0  0  0  0
 22 42  1  0  0  0  0
 22 43  1  0  0  0  0
M  END
$$$$
