CHEBI:16953
 OpenBabel04242415353D

 19 18  0  0  1  0  0  0  0  0999 V2000
    3.5245   -1.4078    1.4871 C   0  0  0  0  0  0  0  0  0  0  0  0
    2.7785   -1.3419    0.1854 C   0  0  0  0  0  0  0  0  0  0  0  0
    1.6311   -1.7886    0.0916 O   0  0  0  0  0  0  0  0  0  0  0  0
    3.3960   -0.7874   -0.8861 N   0  0  0  0  0  0  0  0  0  0  0  0
    4.7313   -0.1330   -1.0127 C   0  0  1  0  0  0  0  0  0  0  0  0
    5.8435   -1.1633   -1.2328 C   0  0  0  0  0  0  0  0  0  0  0  0
    6.5955   -1.6763   -0.0069 C   0  0  0  0  0  0  0  0  0  0  0  0
    7.1263   -2.8208   -0.1519 O   0  0  0  0  0  0  0  0  0  0  0  0
    6.6288   -0.9349    1.0148 O   0  5  0  0  0  0  0  0  0  0  0  0
    4.7386    0.8374   -2.2566 C   0  0  0  0  0  0  0  0  0  0  0  0
    3.8239    0.6027   -3.1142 O   0  0  0  0  0  0  0  0  0  0  0  0
    5.5917    1.7711   -2.2550 O   0  5  0  0  0  0  0  0  0  0  0  0
    2.8117   -1.5941    2.2968 H   0  0  0  0  0  0  0  0  0  0  0  0
    4.0250   -0.4632    1.7066 H   0  0  0  0  0  0  0  0  0  0  0  0
    4.2383   -2.2332    1.4604 H   0  0  0  0  0  0  0  0  0  0  0  0
    2.8643   -0.7200   -1.7507 H   0  0  0  0  0  0  0  0  0  0  0  0
    4.8943    0.4724   -0.1164 H   0  0  0  0  0  0  0  0  0  0  0  0
    6.6282   -0.7394   -1.8741 H   0  0  0  0  0  0  0  0  0  0  0  0
    5.4411   -2.0279   -1.7776 H   0  0  0  0  0  0  0  0  0  0  0  0
  1  2  1  0  0  0  0
  1 13  1  0  0  0  0
  1 14  1  0  0  0  0
  1 15  1  0  0  0  0
  2  3  2  0  0  0  0
  2  4  1  0  0  0  0
  4  5  1  0  0  0  0
  4 16  1  0  0  0  0
  5  6  1  0  0  0  0
  5 10  1  0  0  0  0
  5 17  1  1  0  0  0
  6  7  1  0  0  0  0
  6 18  1  0  0  0  0
  6 19  1  0  0  0  0
  7  8  2  0  0  0  0
  7  9  1  0  0  0  0
 10 11  2  0  0  0  0
 10 12  1  0  0  0  0
M  CHG  2   9  -1  12  -1
M  END
$$$$
