CHEBI:17515
 OpenBabel04242416443D

 30 29  0  0  1  0  0  0  0  0999 V2000
   -0.7513   -1.5830   -2.9165 N   0  0  0  0  0  0  0  0  0  0  0  0
    0.2177   -0.4761   -3.1498 C   0  0  1  0  0  0  0  0  0  0  0  0
    1.5170   -0.5920   -2.3348 C   0  0  0  0  0  0  0  0  0  0  0  0
    2.4627   -1.7315   -2.7184 C   0  0  0  0  0  0  0  0  0  0  0  0
    1.8911   -3.0856   -2.3790 C   0  0  0  0  0  0  0  0  0  0  0  0
    1.1888   -3.7071   -3.1719 O   0  0  0  0  0  0  0  0  0  0  0  0
    2.1263   -3.5110   -1.0981 N   0  0  0  0  0  0  0  0  0  0  0  0
    1.5111   -4.7420   -0.5908 C   0  0  1  0  0  0  0  0  0  0  0  0
    2.3612   -5.3767    0.5167 C   0  0  0  0  0  0  0  0  0  0  0  0
    2.6593   -4.2583    1.9345 S   0  0  0  0  0  0  0  0  0  0  0  0
    0.0679   -4.5611   -0.1075 C   0  0  0  0  0  0  0  0  0  0  0  0
   -0.6207   -5.4291    0.4087 O   0  0  0  0  0  0  0  0  0  0  0  0
   -0.4469   -3.3234   -0.2801 O   0  0  0  0  0  0  0  0  0  0  0  0
    0.4752   -0.3436   -4.6617 C   0  0  0  0  0  0  0  0  0  0  0  0
    1.3693    0.3144   -5.1691 O   0  0  0  0  0  0  0  0  0  0  0  0
   -0.4497   -1.0319   -5.3803 O   0  0  0  0  0  0  0  0  0  0  0  0
   -0.9265   -1.6375   -1.9080 H   0  0  0  0  0  0  0  0  0  0  0  0
   -0.2837   -2.4847   -3.1118 H   0  0  0  0  0  0  0  0  0  0  0  0
   -0.2942    0.4482   -2.8549 H   0  0  0  0  0  0  0  0  0  0  0  0
    1.2644   -0.6657   -1.2691 H   0  0  0  0  0  0  0  0  0  0  0  0
    2.0733    0.3477   -2.4515 H   0  0  0  0  0  0  0  0  0  0  0  0
    3.4111   -1.6095   -2.1805 H   0  0  0  0  0  0  0  0  0  0  0  0
    2.7121   -1.7142   -3.7845 H   0  0  0  0  0  0  0  0  0  0  0  0
    2.4621   -2.8445   -0.4113 H   0  0  0  0  0  0  0  0  0  0  0  0
    1.4518   -5.4464   -1.4304 H   0  0  0  0  0  0  0  0  0  0  0  0
    3.3432   -5.6436    0.1108 H   0  0  0  0  0  0  0  0  0  0  0  0
    1.8979   -6.2934    0.8958 H   0  0  0  0  0  0  0  0  0  0  0  0
    1.4496   -4.3980    2.5005 H   0  0  0  0  0  0  0  0  0  0  0  0
   -1.3692   -3.4228    0.0432 H   0  0  0  0  0  0  0  0  0  0  0  0
   -1.0436   -1.4644   -4.7169 H   0  0  0  0  0  0  0  0  0  0  0  0
  1  2  1  0  0  0  0
  1 17  1  0  0  0  0
  1 18  1  0  0  0  0
  2  3  1  0  0  0  0
  2 14  1  0  0  0  0
  2 19  1  1  0  0  0
  3  4  1  0  0  0  0
  3 20  1  0  0  0  0
  3 21  1  0  0  0  0
  4  5  1  0  0  0  0
  4 22  1  0  0  0  0
  4 23  1  0  0  0  0
  5  6  2  0  0  0  0
  5  7  1  0  0  0  0
  7  8  1  0  0  0  0
  7 24  1  0  0  0  0
  8  9  1  0  0  0  0
  8 11  1  0  0  0  0
  8 25  1  6  0  0  0
  9 10  1  0  0  0  0
  9 26  1  0  0  0  0
  9 27  1  0  0  0  0
 10 28  1  0  0  0  0
 11 12  2  0  0  0  0
 11 13  1  0  0  0  0
 13 29  1  0  0  0  0
 14 15  2  0  0  0  0
 14 16  1  0  0  0  0
 16 30  1  0  0  0  0
M  END
$$$$
