CHEBI:16131
 OpenBabel04242413523D

 20 20  0  0  0  0  0  0  0  0999 V2000
    3.4315    0.4778    1.2228 N   0  0  0  0  0  0  0  0  0  0  0  0
    3.2466    0.3675   -0.1680 N   0  0  0  0  0  0  0  0  0  0  0  0
    3.9383   -0.6509   -0.8763 C   0  0  0  0  0  0  0  0  0  0  0  0
    5.0089   -1.3740   -0.3368 C   0  0  0  0  0  0  0  0  0  0  0  0
    5.7034   -2.3165   -1.1042 C   0  0  0  0  0  0  0  0  0  0  0  0
    5.3635   -2.5325   -2.4439 C   0  0  0  0  0  0  0  0  0  0  0  0
    6.0846   -3.5699   -3.2602 C   0  0  0  0  0  0  0  0  0  0  0  0
    5.4178   -4.8224   -3.1800 O   0  0  0  0  0  0  0  0  0  0  0  0
    4.3085   -1.8001   -2.9976 C   0  0  0  0  0  0  0  0  0  0  0  0
    3.6170   -0.8607   -2.2255 C   0  0  0  0  0  0  0  0  0  0  0  0
    2.8886    1.2656    1.5856 H   0  0  0  0  0  0  0  0  0  0  0  0
    4.4042    0.7345    1.4133 H   0  0  0  0  0  0  0  0  0  0  0  0
    2.2721    0.3997   -0.4835 H   0  0  0  0  0  0  0  0  0  0  0  0
    5.3062   -1.2308    0.6977 H   0  0  0  0  0  0  0  0  0  0  0  0
    6.5136   -2.8786   -0.6444 H   0  0  0  0  0  0  0  0  0  0  0  0
    7.1125   -3.6997   -2.9053 H   0  0  0  0  0  0  0  0  0  0  0  0
    6.1391   -3.2693   -4.3118 H   0  0  0  0  0  0  0  0  0  0  0  0
    4.6957   -4.7334   -2.5341 H   0  0  0  0  0  0  0  0  0  0  0  0
    4.0207   -1.9512   -4.0360 H   0  0  0  0  0  0  0  0  0  0  0  0
    2.8195   -0.2870   -2.6912 H   0  0  0  0  0  0  0  0  0  0  0  0
  1  2  1  0  0  0  0
  1 11  1  0  0  0  0
  1 12  1  0  0  0  0
  2  3  1  0  0  0  0
  2 13  1  0  0  0  0
  3  4  1  0  0  0  0
  3 10  2  0  0  0  0
  4  5  2  0  0  0  0
  4 14  1  0  0  0  0
  5  6  1  0  0  0  0
  5 15  1  0  0  0  0
  6  7  1  0  0  0  0
  6  9  2  0  0  0  0
  7  8  1  0  0  0  0
  7 16  1  0  0  0  0
  7 17  1  0  0  0  0
  8 18  1  0  0  0  0
  9 10  1  0  0  0  0
  9 19  1  0  0  0  0
 10 20  1  0  0  0  0
M  END
$$$$
