CHEBI:16001
 OpenBabel04242413363D

 23 22  0  0  1  0  0  0  0  0999 V2000
    1.2842   -0.1039    2.5613 O   0  0  0  0  0  0  0  0  0  0  0  0
    2.2324    0.3880    1.9589 C   0  0  0  0  0  0  0  0  0  0  0  0
    3.2649    0.9919    2.5717 O   0  0  0  0  0  0  0  0  0  0  0  0
    3.3558    0.9953    4.1629 P   0  0  0  0  0  0  0  0  0  0  0  0
    3.6378   -0.2992    4.8410 O   0  0  0  0  0  0  0  0  0  0  0  0
    4.4655    2.1051    4.4696 O   0  0  0  0  0  0  0  0  0  0  0  0
    2.0268    1.7309    4.6572 O   0  0  0  0  0  0  0  0  0  0  0  0
    2.3578    0.4691    0.4392 C   0  0  2  0  0  0  0  0  0  0  0  0
    1.2358   -0.1101   -0.2299 O   0  0  0  0  0  0  0  0  0  0  0  0
    3.6380   -0.2019   -0.0487 C   0  0  0  0  0  0  0  0  0  0  0  0
    3.5503   -1.6070    0.1639 O   0  0  0  0  0  0  0  0  0  0  0  0
    4.7971   -2.5069   -0.2789 P   0  0  0  0  0  0  0  0  0  0  0  0
    4.6758   -3.9693   -0.0343 O   0  0  0  0  0  0  0  0  0  0  0  0
    5.0386   -2.1627   -1.8173 O   0  0  0  0  0  0  0  0  0  0  0  0
    6.0687   -1.8566    0.4295 O   0  0  0  0  0  0  0  0  0  0  0  0
    4.7289    2.0726    5.4070 H   0  0  0  0  0  0  0  0  0  0  0  0
    1.2582    1.1280    4.5817 H   0  0  0  0  0  0  0  0  0  0  0  0
    2.3678    1.5320    0.1740 H   0  0  0  0  0  0  0  0  0  0  0  0
    1.1791   -1.0320    0.0894 H   0  0  0  0  0  0  0  0  0  0  0  0
    4.5185    0.1959    0.4648 H   0  0  0  0  0  0  0  0  0  0  0  0
    3.7469   -0.0273   -1.1242 H   0  0  0  0  0  0  0  0  0  0  0  0
    4.5559   -2.7866   -2.3910 H   0  0  0  0  0  0  0  0  0  0  0  0
    6.7918   -2.5065    0.4992 H   0  0  0  0  0  0  0  0  0  0  0  0
  1  2  2  0  0  0  0
  2  3  1  0  0  0  0
  3  4  1  0  0  0  0
  4  5  2  0  0  0  0
  4  6  1  0  0  0  0
  4  7  1  0  0  0  0
  6 16  1  0  0  0  0
  7 17  1  0  0  0  0
  8 10  1  0  0  0  0
  8  9  1  0  0  0  0
  8  2  1  0  0  0  0
  8 18  1  6  0  0  0
  9 19  1  0  0  0  0
 10 11  1  0  0  0  0
 10 20  1  0  0  0  0
 10 21  1  0  0  0  0
 11 12  1  0  0  0  0
 12 13  2  0  0  0  0
 12 14  1  0  0  0  0
 12 15  1  0  0  0  0
 14 22  1  0  0  0  0
 15 23  1  0  0  0  0
M  END
$$$$
