CHEBI:18414
 OpenBabel04252409353D

 19 19  0  0  0  0  0  0  0  0999 V2000
    3.2118   -0.7499   -1.0725 C   0  0  0  0  0  0  0  0  0  0  0  0
    2.6317   -0.2662    0.2297 C   0  0  0  0  0  0  0  0  0  0  0  0
    1.5084   -0.6175    0.5921 O   0  0  0  0  0  0  0  0  0  0  0  0
    3.4351    0.6253    1.1137 C   0  0  0  0  0  0  0  0  0  0  0  0
    3.1543    0.5816    2.4902 C   0  0  0  0  0  0  0  0  0  0  0  0
    3.8672    1.3771    3.3900 C   0  0  0  0  0  0  0  0  0  0  0  0
    4.8584    2.2234    2.9087 C   0  0  0  0  0  0  0  0  0  0  0  0
    5.5829    3.0175    3.7472 O   0  0  0  0  0  0  0  0  0  0  0  0
    5.1420    2.2942    1.5483 C   0  0  0  0  0  0  0  0  0  0  0  0
    4.4262    1.4991    0.6495 C   0  0  0  0  0  0  0  0  0  0  0  0
    4.6916    1.6131   -0.6864 O   0  0  0  0  0  0  0  0  0  0  0  0
    2.7603   -1.7154   -1.3222 H   0  0  0  0  0  0  0  0  0  0  0  0
    4.2889   -0.9149   -0.9871 H   0  0  0  0  0  0  0  0  0  0  0  0
    2.9879   -0.0373   -1.8698 H   0  0  0  0  0  0  0  0  0  0  0  0
    2.3751   -0.0804    2.8657 H   0  0  0  0  0  0  0  0  0  0  0  0
    3.6333    1.3209    4.4487 H   0  0  0  0  0  0  0  0  0  0  0  0
    5.2754    2.8750    4.6583 H   0  0  0  0  0  0  0  0  0  0  0  0
    5.9163    2.9762    1.2102 H   0  0  0  0  0  0  0  0  0  0  0  0
    5.3592    2.3076   -0.8223 H   0  0  0  0  0  0  0  0  0  0  0  0
  1  2  1  0  0  0  0
  1 12  1  0  0  0  0
  1 13  1  0  0  0  0
  1 14  1  0  0  0  0
  2  3  2  0  0  0  0
  2  4  1  0  0  0  0
  4  5  1  0  0  0  0
  4 10  2  0  0  0  0
  5  6  2  0  0  0  0
  5 15  1  0  0  0  0
  6  7  1  0  0  0  0
  6 16  1  0  0  0  0
  7  8  1  0  0  0  0
  7  9  2  0  0  0  0
  8 17  1  0  0  0  0
  9 10  1  0  0  0  0
  9 18  1  0  0  0  0
 10 11  1  0  0  0  0
 11 19  1  0  0  0  0
M  END
$$$$
