CHEBI:17429
 OpenBabel04242416333D

 43 44  0  0  1  0  0  0  0  0999 V2000
    0.3631   -0.3044   -5.7056 O   0  0  0  0  0  0  0  0  0  0  0  0
   -0.0536    0.6454   -5.0365 C   0  0  0  0  0  0  0  0  0  0  0  0
   -1.5175    1.0548   -5.0568 C   0  0  1  0  0  0  0  0  0  0  0  0
   -2.3447    0.0552   -5.6472 O   0  0  0  0  0  0  0  0  0  0  0  0
   -1.9613    1.3982   -3.6200 C   0  0  1  0  0  0  0  0  0  0  0  0
   -2.0692    0.2103   -2.8380 O   0  0  0  0  0  0  0  0  0  0  0  0
   -2.6606    0.3374   -1.5298 C   0  0  2  0  0  0  0  0  0  0  0  0
   -4.0722    0.9862   -1.5283 C   0  0  0  0  0  0  0  0  0  0  0  0
   -4.0036    2.4027   -1.7442 O   0  0  0  0  0  0  0  0  0  0  0  0
   -1.8200    1.0887   -0.6283 O   0  0  0  0  0  0  0  0  0  0  0  0
   -1.6647    0.3411    0.6085 C   0  0  2  0  0  0  0  0  0  0  0  0
   -0.1810   -0.0100    0.7833 C   0  0  0  0  0  0  0  0  0  0  0  0
    0.5639    1.1363    1.1914 O   0  0  0  0  0  0  0  0  0  0  0  0
   -2.5481   -0.9085    0.5219 C   0  0  1  0  0  0  0  0  0  0  0  0
   -3.8211   -0.6619    1.1228 O   0  0  0  0  0  0  0  0  0  0  0  0
   -2.7096   -1.1057   -0.9695 C   0  0  2  0  0  0  0  0  0  0  0  0
   -1.6000   -1.8932   -1.4360 O   0  0  0  0  0  0  0  0  0  0  0  0
   -1.0608    2.3475   -3.0451 O   0  0  0  0  0  0  0  0  0  0  0  0
    0.2753    1.8184   -2.9078 C   0  0  2  0  0  0  0  0  0  0  0  0
    1.0696    2.8361   -2.0874 C   0  0  0  0  0  0  0  0  0  0  0  0
    0.4301    3.0025   -0.8152 O   0  0  0  0  0  0  0  0  0  0  0  0
    0.8940    1.5625   -4.2761 C   0  0  1  0  0  0  0  0  0  0  0  0
    2.1840    0.9819   -4.1490 O   0  0  0  0  0  0  0  0  0  0  0  0
   -1.5726    1.9519   -5.6851 H   0  0  0  0  0  0  0  0  0  0  0  0
   -1.7766   -0.4447   -6.2675 H   0  0  0  0  0  0  0  0  0  0  0  0
   -2.9459    1.8594   -3.7211 H   0  0  0  0  0  0  0  0  0  0  0  0
   -4.5820    0.8632   -0.5713 H   0  0  0  0  0  0  0  0  0  0  0  0
   -4.6982    0.5580   -2.3169 H   0  0  0  0  0  0  0  0  0  0  0  0
   -3.2965    2.7254   -1.1514 H   0  0  0  0  0  0  0  0  0  0  0  0
   -1.9862    1.0060    1.4181 H   0  0  0  0  0  0  0  0  0  0  0  0
    0.2659   -0.3844   -0.1424 H   0  0  0  0  0  0  0  0  0  0  0  0
   -0.0509   -0.7617    1.5676 H   0  0  0  0  0  0  0  0  0  0  0  0
    0.5031    1.8060    0.4746 H   0  0  0  0  0  0  0  0  0  0  0  0
   -2.0983   -1.7643    1.0362 H   0  0  0  0  0  0  0  0  0  0  0  0
   -4.2261   -1.5293    1.3085 H   0  0  0  0  0  0  0  0  0  0  0  0
   -3.6279   -1.6281   -1.2556 H   0  0  0  0  0  0  0  0  0  0  0  0
   -1.4627   -1.6182   -2.3661 H   0  0  0  0  0  0  0  0  0  0  0  0
    0.2386    0.8892   -2.3255 H   0  0  0  0  0  0  0  0  0  0  0  0
    1.0819    3.8162   -2.5748 H   0  0  0  0  0  0  0  0  0  0  0  0
    2.0976    2.5087   -1.9106 H   0  0  0  0  0  0  0  0  0  0  0  0
   -0.5300    3.0386   -1.0115 H   0  0  0  0  0  0  0  0  0  0  0  0
    0.9817    2.4884   -4.8554 H   0  0  0  0  0  0  0  0  0  0  0  0
    2.3080    0.3907   -4.9198 H   0  0  0  0  0  0  0  0  0  0  0  0
  1  2  2  0  0  0  0
  2  3  1  0  0  0  0
  2 22  1  0  0  0  0
  3  4  1  0  0  0  0
  3  5  1  0  0  0  0
  3 24  1  6  0  0  0
  4 25  1  0  0  0  0
  5 18  1  0  0  0  0
  5  6  1  0  0  0  0
  5 26  1  6  0  0  0
  7  6  1  6  0  0  0
  7  8  1  0  0  0  0
  7 10  1  0  0  0  0
  7 16  1  0  0  0  0
  8  9  1  0  0  0  0
  8 27  1  0  0  0  0
  8 28  1  0  0  0  0
  9 29  1  0  0  0  0
 10 11  1  0  0  0  0
 11 12  1  0  0  0  0
 11 14  1  0  0  0  0
 11 30  1  1  0  0  0
 12 13  1  0  0  0  0
 12 31  1  0  0  0  0
 12 32  1  0  0  0  0
 13 33  1  0  0  0  0
 14 15  1  0  0  0  0
 14 16  1  0  0  0  0
 14 34  1  1  0  0  0
 15 35  1  0  0  0  0
 16 17  1  0  0  0  0
 16 36  1  6  0  0  0
 17 37  1  0  0  0  0
 18 19  1  0  0  0  0
 19 20  1  0  0  0  0
 19 22  1  0  0  0  0
 19 38  1  1  0  0  0
 20 21  1  0  0  0  0
 20 39  1  0  0  0  0
 20 40  1  0  0  0  0
 21 41  1  0  0  0  0
 22 23  1  0  0  0  0
 22 42  1  6  0  0  0
 23 43  1  0  0  0  0
M  END
$$$$
