CHEBI:27417
 OpenBabel04252409523D

 18 18  0  0  0  0  0  0  0  0999 V2000
    2.9082    0.0052    0.0046 C   0  0  0  0  0  0  0  0  0  0  0  0
    1.4087   -0.0095    0.0019 C   0  0  0  0  0  0  0  0  0  0  0  0
    0.6996   -1.2152    0.0017 C   0  0  0  0  0  0  0  0  0  0  0  0
   -0.6979   -1.2161    0.0005 C   0  0  0  0  0  0  0  0  0  0  0  0
   -1.4085   -0.0112   -0.0002 C   0  0  0  0  0  0  0  0  0  0  0  0
   -2.9081    0.0015   -0.0013 C   0  0  0  0  0  0  0  0  0  0  0  0
   -0.6991    1.1951    0.0002 C   0  0  0  0  0  0  0  0  0  0  0  0
    0.6977    1.1960    0.0014 C   0  0  0  0  0  0  0  0  0  0  0  0
    3.3201   -1.0094   -0.0047 H   0  0  0  0  0  0  0  0  0  0  0  0
    3.2787    0.5098    0.9027 H   0  0  0  0  0  0  0  0  0  0  0  0
    3.2821    0.5268   -0.8823 H   0  0  0  0  0  0  0  0  0  0  0  0
    1.2288   -2.1652    0.0026 H   0  0  0  0  0  0  0  0  0  0  0  0
   -1.2259   -2.1668    0.0002 H   0  0  0  0  0  0  0  0  0  0  0  0
   -3.3187   -1.0135    0.0001 H   0  0  0  0  0  0  0  0  0  0  0  0
   -3.2802    0.5128   -0.8949 H   0  0  0  0  0  0  0  0  0  0  0  0
   -3.2815    0.5157    0.8901 H   0  0  0  0  0  0  0  0  0  0  0  0
   -1.2317    2.1434   -0.0002 H   0  0  0  0  0  0  0  0  0  0  0  0
    1.2292    2.1449    0.0020 H   0  0  0  0  0  0  0  0  0  0  0  0
  1  2  1  0  0  0  0
  1  9  1  0  0  0  0
  1 10  1  0  0  0  0
  1 11  1  0  0  0  0
  2  3  1  0  0  0  0
  2  8  2  0  0  0  0
  3  4  2  0  0  0  0
  3 12  1  0  0  0  0
  4  5  1  0  0  0  0
  4 13  1  0  0  0  0
  5  6  1  0  0  0  0
  5  7  2  0  0  0  0
  6 14  1  0  0  0  0
  6 15  1  0  0  0  0
  6 16  1  0  0  0  0
  7  8  1  0  0  0  0
  7 17  1  0  0  0  0
  8 18  1  0  0  0  0
M  END
$$$$
