CHEBI:17183
 OpenBabel04242415593D

 39 44  0  0  0  0  0  0  0  0999 V2000
    1.3040   -0.4742    0.2661 C   0  0  0  0  0  0  0  0  0  0  0  0
    2.7461   -0.1370    0.2661 N   0  3  0  0  0  0  0  0  0  0  0  0
    3.5721   -1.1940    0.0983 C   0  0  0  0  0  0  0  0  0  0  0  0
    4.9065   -1.0507   -0.2332 C   0  0  0  0  0  0  0  0  0  0  0  0
    5.7220   -2.1646   -0.4183 C   0  0  0  0  0  0  0  0  0  0  0  0
    7.0365   -2.0540   -0.7900 C   0  0  0  0  0  0  0  0  0  0  0  0
    7.6132   -0.8291   -1.0025 C   0  0  0  0  0  0  0  0  0  0  0  0
    6.8129    0.3073   -0.8213 C   0  0  0  0  0  0  0  0  0  0  0  0
    5.4352    0.2332   -0.4279 C   0  0  0  0  0  0  0  0  0  0  0  0
    4.5681    1.3495   -0.1985 C   0  0  0  0  0  0  0  0  0  0  0  0
    5.0043    2.6672   -0.4187 C   0  0  0  0  0  0  0  0  0  0  0  0
    4.1952    3.7685   -0.1618 C   0  0  0  0  0  0  0  0  0  0  0  0
    2.9405    3.6146    0.4118 C   0  0  0  0  0  0  0  0  0  0  0  0
    2.2219    4.7818    0.7310 C   0  0  0  0  0  0  0  0  0  0  0  0
    1.0227    4.6612    1.3856 C   0  0  0  0  0  0  0  0  0  0  0  0
    0.5414    3.4371    1.7408 C   0  0  0  0  0  0  0  0  0  0  0  0
    1.2169    2.2711    1.4329 C   0  0  0  0  0  0  0  0  0  0  0  0
    2.4354    2.3054    0.6922 C   0  0  0  0  0  0  0  0  0  0  0  0
    3.2186    1.1582    0.2663 C   0  0  0  0  0  0  0  0  0  0  0  0
   -0.6298    3.5142    2.4251 O   0  0  0  0  0  0  0  0  0  0  0  0
   -0.8332    4.9467    2.4552 C   0  0  0  0  0  0  0  0  0  0  0  0
    0.2191    5.6767    1.7888 O   0  0  0  0  0  0  0  0  0  0  0  0
    7.6515   -3.2562   -0.9179 O   0  0  0  0  0  0  0  0  0  0  0  0
    6.5797   -4.1559   -0.5790 C   0  0  0  0  0  0  0  0  0  0  0  0
    5.3429   -3.4675   -0.2713 O   0  0  0  0  0  0  0  0  0  0  0  0
    1.1483   -1.3808   -0.3286 H   0  0  0  0  0  0  0  0  0  0  0  0
    0.7336    0.3194   -0.2193 H   0  0  0  0  0  0  0  0  0  0  0  0
    0.9999   -0.6654    1.2970 H   0  0  0  0  0  0  0  0  0  0  0  0
    3.1277   -2.1839    0.1939 H   0  0  0  0  0  0  0  0  0  0  0  0
    8.6548   -0.7441   -1.2972 H   0  0  0  0  0  0  0  0  0  0  0  0
    7.3008    1.2666   -0.9845 H   0  0  0  0  0  0  0  0  0  0  0  0
    5.9949    2.8845   -0.8142 H   0  0  0  0  0  0  0  0  0  0  0  0
    4.5942    4.7626   -0.3713 H   0  0  0  0  0  0  0  0  0  0  0  0
    2.6018    5.7740    0.4997 H   0  0  0  0  0  0  0  0  0  0  0  0
    0.7896    1.3642    1.8377 H   0  0  0  0  0  0  0  0  0  0  0  0
   -0.8816    5.2724    3.5006 H   0  0  0  0  0  0  0  0  0  0  0  0
   -1.7868    5.1764    1.9663 H   0  0  0  0  0  0  0  0  0  0  0  0
    6.8764   -4.7487    0.2937 H   0  0  0  0  0  0  0  0  0  0  0  0
    6.4028   -4.8308   -1.4241 H   0  0  0  0  0  0  0  0  0  0  0  0
  1  2  1  0  0  0  0
  1 26  1  0  0  0  0
  1 27  1  0  0  0  0
  1 28  1  0  0  0  0
  2  3  1  0  0  0  0
  2 19  2  0  0  0  0
  3  4  2  0  0  0  0
  3 29  1  0  0  0  0
  4  5  1  0  0  0  0
  4  9  1  0  0  0  0
  5  6  2  0  0  0  0
  5 25  1  0  0  0  0
  6  7  1  0  0  0  0
  6 23  1  0  0  0  0
  7  8  2  0  0  0  0
  7 30  1  0  0  0  0
  8  9  1  0  0  0  0
  8 31  1  0  0  0  0
  9 10  2  0  0  0  0
 10 11  1  0  0  0  0
 10 19  1  0  0  0  0
 11 12  2  0  0  0  0
 11 32  1  0  0  0  0
 12 13  1  0  0  0  0
 12 33  1  0  0  0  0
 13 14  1  0  0  0  0
 13 18  2  0  0  0  0
 14 15  2  0  0  0  0
 14 34  1  0  0  0  0
 15 16  1  0  0  0  0
 15 22  1  0  0  0  0
 16 17  2  0  0  0  0
 16 20  1  0  0  0  0
 17 18  1  0  0  0  0
 17 35  1  0  0  0  0
 18 19  1  0  0  0  0
 20 21  1  0  0  0  0
 21 22  1  0  0  0  0
 21 36  1  0  0  0  0
 21 37  1  0  0  0  0
 23 24  1  0  0  0  0
 24 25  1  0  0  0  0
 24 38  1  0  0  0  0
 24 39  1  0  0  0  0
M  CHG  1   2   1
M  END
$$$$
