CHEBI:25461
 OpenBabel04252409403D

 66 67  0  0  1  0  0  0  0  0999 V2000
    5.9778    4.9700    1.4140 C   0  0  0  0  0  0  0  0  0  0  0  0
    4.9968    4.0465    1.8705 O   0  0  0  0  0  0  0  0  0  0  0  0
    3.7223    4.4998    2.2065 C   0  0  0  0  0  0  0  0  0  0  0  0
    3.3171    5.7675    1.9805 C   0  0  0  0  0  0  0  0  0  0  0  0
    1.9945    6.3730    2.2458 C   0  0  0  0  0  0  0  0  0  0  0  0
    2.0603    7.6872    2.5894 N   0  0  0  0  0  0  0  0  0  0  0  0
    0.9233    5.7981    2.1334 O   0  0  0  0  0  0  0  0  0  0  0  0
    2.9587    3.3753    2.9204 C   0  0  2  0  0  0  0  0  0  0  0  0
    2.0595    3.7778    4.1000 C   0  0  0  0  0  0  0  0  0  0  0  0
    2.3233    2.3389    1.9447 C   0  0  2  0  0  0  0  0  0  0  0  0
    1.1006    2.8273    1.2235 C   0  0  0  0  0  0  0  0  0  0  0  0
    0.9169    2.8175   -0.1092 C   0  0  0  0  0  0  0  0  0  0  0  0
   -0.2961    3.2243   -0.7427 C   0  0  0  0  0  0  0  0  0  0  0  0
   -0.5580    3.1414   -2.0927 C   0  0  0  0  0  0  0  0  0  0  0  0
   -2.1500    3.7132   -2.4022 S   0  0  0  0  0  0  0  0  0  0  0  0
   -2.3549    4.0214   -0.7237 C   0  0  0  0  0  0  0  0  0  0  0  0
   -3.6159    4.5820   -0.1309 C   0  0  0  0  0  0  0  0  0  0  0  0
   -3.7382    4.8341    1.2214 C   0  0  0  0  0  0  0  0  0  0  0  0
   -5.3073    5.4250    1.5678 S   0  0  0  0  0  0  0  0  0  0  0  0
   -5.7087    5.3043   -0.1025 C   0  0  0  0  0  0  0  0  0  0  0  0
   -7.0930    5.6824   -0.5922 C   0  0  1  0  0  0  0  0  0  0  0  0
   -7.0613    7.1010   -1.1686 C   0  0  0  0  0  0  0  0  0  0  0  0
   -7.6307    4.7165   -1.6301 C   0  0  0  0  0  0  0  0  0  0  0  0
   -8.9095    4.3206   -1.7217 C   0  0  0  0  0  0  0  0  0  0  0  0
   -9.3366    3.3456   -2.6975 C   0  0  0  0  0  0  0  0  0  0  0  0
  -10.6241    3.0352   -2.9128 C   0  0  0  0  0  0  0  0  0  0  0  0
  -11.1321    1.9964   -3.8879 C   0  0  0  0  0  0  0  0  0  0  0  0
  -11.3949    2.6301   -5.2538 C   0  0  0  0  0  0  0  0  0  0  0  0
  -10.2269    0.7692   -4.0297 C   0  0  0  0  0  0  0  0  0  0  0  0
   -4.7381    4.8756   -0.8866 N   0  0  0  0  0  0  0  0  0  0  0  0
   -1.3233    3.7140    0.0323 N   0  0  0  0  0  0  0  0  0  0  0  0
    1.9250    1.1940    2.7244 O   0  0  0  0  0  0  0  0  0  0  0  0
    1.8837   -0.0120    1.9727 C   0  0  0  0  0  0  0  0  0  0  0  0
    6.9177    4.4254    1.2844 H   0  0  0  0  0  0  0  0  0  0  0  0
    6.1477    5.7599    2.1533 H   0  0  0  0  0  0  0  0  0  0  0  0
    5.6960    5.3908    0.4440 H   0  0  0  0  0  0  0  0  0  0  0  0
    3.9846    6.4731    1.5011 H   0  0  0  0  0  0  0  0  0  0  0  0
    2.9214    8.1931    2.7327 H   0  0  0  0  0  0  0  0  0  0  0  0
    1.1837    8.1552    2.7800 H   0  0  0  0  0  0  0  0  0  0  0  0
    3.7505    2.8060    3.4376 H   0  0  0  0  0  0  0  0  0  0  0  0
    1.0776    4.1410    3.7957 H   0  0  0  0  0  0  0  0  0  0  0  0
    2.5380    4.5473    4.7153 H   0  0  0  0  0  0  0  0  0  0  0  0
    1.8802    2.9132    4.7499 H   0  0  0  0  0  0  0  0  0  0  0  0
    3.0957    2.0249    1.2289 H   0  0  0  0  0  0  0  0  0  0  0  0
    0.2897    3.1793    1.8593 H   0  0  0  0  0  0  0  0  0  0  0  0
    1.7163    2.4511   -0.7469 H   0  0  0  0  0  0  0  0  0  0  0  0
    0.0727    2.7804   -2.8915 H   0  0  0  0  0  0  0  0  0  0  0  0
   -2.9950    4.6934    1.9950 H   0  0  0  0  0  0  0  0  0  0  0  0
   -7.7815    5.6835    0.2642 H   0  0  0  0  0  0  0  0  0  0  0  0
   -6.3876    7.1733   -2.0304 H   0  0  0  0  0  0  0  0  0  0  0  0
   -6.7152    7.8207   -0.4177 H   0  0  0  0  0  0  0  0  0  0  0  0
   -8.0596    7.4160   -1.4926 H   0  0  0  0  0  0  0  0  0  0  0  0
   -6.8918    4.3152   -2.3240 H   0  0  0  0  0  0  0  0  0  0  0  0
   -9.6583    4.7245   -1.0444 H   0  0  0  0  0  0  0  0  0  0  0  0
   -8.5546    2.8504   -3.2694 H   0  0  0  0  0  0  0  0  0  0  0  0
  -11.3984    3.5609   -2.3558 H   0  0  0  0  0  0  0  0  0  0  0  0
  -12.0907    1.6364   -3.4914 H   0  0  0  0  0  0  0  0  0  0  0  0
  -10.4664    2.9874   -5.7141 H   0  0  0  0  0  0  0  0  0  0  0  0
  -12.0787    3.4819   -5.1705 H   0  0  0  0  0  0  0  0  0  0  0  0
  -11.8486    1.9035   -5.9365 H   0  0  0  0  0  0  0  0  0  0  0  0
   -9.2777    1.0124   -4.5189 H   0  0  0  0  0  0  0  0  0  0  0  0
  -10.7198   -0.0003   -4.6341 H   0  0  0  0  0  0  0  0  0  0  0  0
  -10.0053    0.3296   -3.0509 H   0  0  0  0  0  0  0  0  0  0  0  0
    1.2955    0.0970    1.0570 H   0  0  0  0  0  0  0  0  0  0  0  0
    1.4140   -0.7825    2.5900 H   0  0  0  0  0  0  0  0  0  0  0  0
    2.9002   -0.3330    1.7282 H   0  0  0  0  0  0  0  0  0  0  0  0
  1  2  1  0  0  0  0
  1 34  1  0  0  0  0
  1 35  1  0  0  0  0
  1 36  1  0  0  0  0
  2  3  1  0  0  0  0
  3  4  2  0  0  0  0
  4  5  1  0  0  0  0
  4 37  1  0  0  0  0
  5  6  1  0  0  0  0
  5  7  2  0  0  0  0
  6 38  1  0  0  0  0
  6 39  1  0  0  0  0
  8  9  1  0  0  0  0
  8  3  1  0  0  0  0
  8 40  1  6  0  0  0
  9 41  1  0  0  0  0
  9 42  1  0  0  0  0
  9 43  1  0  0  0  0
 10 32  1  0  0  0  0
 10 11  1  0  0  0  0
 10  8  1  0  0  0  0
 10 44  1  6  0  0  0
 11 12  2  0  0  0  0
 11 45  1  0  0  0  0
 12 13  1  0  0  0  0
 12 46  1  0  0  0  0
 13 14  2  0  0  0  0
 13 31  1  0  0  0  0
 14 15  1  0  0  0  0
 14 47  1  0  0  0  0
 15 16  1  0  0  0  0
 16 17  1  0  0  0  0
 16 31  2  0  0  0  0
 17 18  2  0  0  0  0
 17 30  1  0  0  0  0
 18 19  1  0  0  0  0
 18 48  1  0  0  0  0
 19 20  1  0  0  0  0
 20 21  1  0  0  0  0
 20 30  2  0  0  0  0
 21 22  1  0  0  0  0
 21 23  1  0  0  0  0
 21 49  1  1  0  0  0
 22 50  1  0  0  0  0
 22 51  1  0  0  0  0
 22 52  1  0  0  0  0
 23 24  2  0  0  0  0
 23 53  1  0  0  0  0
 24 25  1  0  0  0  0
 24 54  1  0  0  0  0
 25 26  2  0  0  0  0
 25 55  1  0  0  0  0
 26 27  1  0  0  0  0
 26 56  1  0  0  0  0
 27 28  1  0  0  0  0
 27 29  1  0  0  0  0
 27 57  1  0  0  0  0
 28 58  1  0  0  0  0
 28 59  1  0  0  0  0
 28 60  1  0  0  0  0
 29 61  1  0  0  0  0
 29 62  1  0  0  0  0
 29 63  1  0  0  0  0
 32 33  1  0  0  0  0
 33 64  1  0  0  0  0
 33 65  1  0  0  0  0
 33 66  1  0  0  0  0
M  END
$$$$
