CHEBI:15336
 OpenBabel04242411433D

 36 36  0  0  1  0  0  0  0  0999 V2000
   -0.9492    5.9917    7.2544 N   0  0  0  0  0  0  0  0  0  0  0  0
   -0.3052    5.9160    5.9041 C   0  0  1  0  0  0  0  0  0  0  0  0
   -1.3136    5.3852    4.8737 C   0  0  0  0  0  0  0  0  0  0  0  0
   -0.7139    5.0586    3.5015 C   0  0  0  0  0  0  0  0  0  0  0  0
    0.4293    4.0683    3.5787 C   0  0  0  0  0  0  0  0  0  0  0  0
    0.5958    3.2941    4.5184 O   0  0  0  0  0  0  0  0  0  0  0  0
    1.2662    4.1304    2.4831 N   0  0  0  0  0  0  0  0  0  0  0  0
    2.3749    3.2715    2.4536 N   0  0  0  0  0  0  0  0  0  0  0  0
    3.6121    3.9533    2.3015 C   0  0  0  0  0  0  0  0  0  0  0  0
    4.7866    3.3401    2.7575 C   0  0  0  0  0  0  0  0  0  0  0  0
    6.0421    3.9257    2.5438 C   0  0  0  0  0  0  0  0  0  0  0  0
    6.1577    5.1402    1.8576 C   0  0  0  0  0  0  0  0  0  0  0  0
    7.4848    5.7967    1.5698 C   0  0  0  0  0  0  0  0  0  0  0  0
    8.5507    5.2488    2.3338 O   0  0  0  0  0  0  0  0  0  0  0  0
    4.9901    5.7338    1.3629 C   0  0  0  0  0  0  0  0  0  0  0  0
    3.7394    5.1414    1.5703 C   0  0  0  0  0  0  0  0  0  0  0  0
    0.2276    7.3228    5.5649 C   0  0  0  0  0  0  0  0  0  0  0  0
    0.5134    7.7331    4.4531 O   0  0  0  0  0  0  0  0  0  0  0  0
    0.3779    8.0641    6.6960 O   0  0  0  0  0  0  0  0  0  0  0  0
   -1.1179    5.0276    7.5613 H   0  0  0  0  0  0  0  0  0  0  0  0
   -1.8897    6.3847    7.1409 H   0  0  0  0  0  0  0  0  0  0  0  0
    0.5693    5.2675    6.0055 H   0  0  0  0  0  0  0  0  0  0  0  0
   -2.1169    6.1194    4.7278 H   0  0  0  0  0  0  0  0  0  0  0  0
   -1.7865    4.4753    5.2664 H   0  0  0  0  0  0  0  0  0  0  0  0
   -0.3751    5.9704    3.0004 H   0  0  0  0  0  0  0  0  0  0  0  0
   -1.4907    4.6154    2.8668 H   0  0  0  0  0  0  0  0  0  0  0  0
    0.9748    4.5308    1.5979 H   0  0  0  0  0  0  0  0  0  0  0  0
    2.3925    2.6749    3.2910 H   0  0  0  0  0  0  0  0  0  0  0  0
    4.7382    2.3889    3.2823 H   0  0  0  0  0  0  0  0  0  0  0  0
    6.9286    3.4081    2.9043 H   0  0  0  0  0  0  0  0  0  0  0  0
    7.4307    6.8663    1.8015 H   0  0  0  0  0  0  0  0  0  0  0  0
    7.7303    5.6811    0.5094 H   0  0  0  0  0  0  0  0  0  0  0  0
    8.3019    5.3520    3.2677 H   0  0  0  0  0  0  0  0  0  0  0  0
    5.0435    6.6595    0.7931 H   0  0  0  0  0  0  0  0  0  0  0  0
    2.8701    5.6293    1.1417 H   0  0  0  0  0  0  0  0  0  0  0  0
    0.0537    7.4880    7.4348 H   0  0  0  0  0  0  0  0  0  0  0  0
  1  2  1  0  0  0  0
  1 20  1  0  0  0  0
  1 21  1  0  0  0  0
  2  3  1  0  0  0  0
  2 17  1  0  0  0  0
  2 22  1  1  0  0  0
  3  4  1  0  0  0  0
  3 23  1  0  0  0  0
  3 24  1  0  0  0  0
  4  5  1  0  0  0  0
  4 25  1  0  0  0  0
  4 26  1  0  0  0  0
  5  6  2  0  0  0  0
  5  7  1  0  0  0  0
  7  8  1  0  0  0  0
  7 27  1  0  0  0  0
  8  9  1  0  0  0  0
  8 28  1  0  0  0  0
  9 10  1  0  0  0  0
  9 16  2  0  0  0  0
 10 11  2  0  0  0  0
 10 29  1  0  0  0  0
 11 12  1  0  0  0  0
 11 30  1  0  0  0  0
 12 13  1  0  0  0  0
 12 15  2  0  0  0  0
 13 14  1  0  0  0  0
 13 31  1  0  0  0  0
 13 32  1  0  0  0  0
 14 33  1  0  0  0  0
 15 16  1  0  0  0  0
 15 34  1  0  0  0  0
 16 35  1  0  0  0  0
 17 18  2  0  0  0  0
 17 19  1  0  0  0  0
 19 36  1  0  0  0  0
M  END
$$$$
