CHEBI:17150
 OpenBabel04242415563D

 14 13  0  0  0  0  0  0  0  0999 V2000
    3.0446   -1.1134    2.2887 O   0  0  0  0  0  0  0  0  0  0  0  0
    2.1343   -0.3332    2.0426 C   0  0  0  0  0  0  0  0  0  0  0  0
    1.5653    0.4244    3.0056 O   0  0  0  0  0  0  0  0  0  0  0  0
    1.6016   -0.0854    0.6372 C   0  0  0  0  0  0  0  0  0  0  0  0
    0.1955   -0.1112    0.5220 O   0  0  0  0  0  0  0  0  0  0  0  0
   -0.6195    1.2567    0.5324 P   0  0  0  0  0  0  0  0  0  0  0  0
   -2.0982    1.1719    0.4287 O   0  0  0  0  0  0  0  0  0  0  0  0
   -0.1268    1.9813    1.8737 O   0  0  0  0  0  0  0  0  0  0  0  0
    0.0485    2.1527   -0.6014 O   0  0  0  0  0  0  0  0  0  0  0  0
    0.8922    1.0595    2.6634 H   0  0  0  0  0  0  0  0  0  0  0  0
    1.9878   -0.8837   -0.0052 H   0  0  0  0  0  0  0  0  0  0  0  0
    2.0231    0.8570    0.2733 H   0  0  0  0  0  0  0  0  0  0  0  0
   -0.7288    2.7305    2.0711 H   0  0  0  0  0  0  0  0  0  0  0  0
   -0.3972    2.0243   -1.4610 H   0  0  0  0  0  0  0  0  0  0  0  0
  1  2  2  0  0  0  0
  2  3  1  0  0  0  0
  2  4  1  0  0  0  0
  3 10  1  0  0  0  0
  4  5  1  0  0  0  0
  4 11  1  0  0  0  0
  4 12  1  0  0  0  0
  5  6  1  0  0  0  0
  6  7  2  0  0  0  0
  6  8  1  0  0  0  0
  6  9  1  0  0  0  0
  8 13  1  0  0  0  0
  9 14  1  0  0  0  0
M  END
$$$$
