CHEBI:17529
 OpenBabel04242416463D

 49 51  0  0  0  0  0  0  0  0999 V2000
    2.8483   -0.9260    0.9459 C   0  0  0  0  0  0  0  0  0  0  0  0
    3.9698   -0.1769    0.2200 C   0  0  0  0  0  0  0  0  0  0  0  0
    5.1978   -1.0777    0.0773 C   0  0  0  0  0  0  0  0  0  0  0  0
    3.4975    0.1661   -1.0870 O   0  0  0  0  0  0  0  0  0  0  0  0
    4.2853    1.1345    0.9602 C   0  0  0  0  0  0  0  0  0  0  0  0
    5.3518    1.9930    0.2663 C   0  0  0  0  0  0  0  0  0  0  0  0
    5.3911    3.3916    0.8430 C   0  0  0  0  0  0  0  0  0  0  0  0
    4.5108    4.3899    0.4059 C   0  0  0  0  0  0  0  0  0  0  0  0
    3.5586    4.1833   -0.5533 O   0  0  0  0  0  0  0  0  0  0  0  0
    4.5602    5.6781    0.9342 C   0  0  0  0  0  0  0  0  0  0  0  0
    5.4733    5.9858    1.9423 C   0  0  0  0  0  0  0  0  0  0  0  0
    5.5085    7.2641    2.4215 O   0  0  0  0  0  0  0  0  0  0  0  0
    6.3447    5.0051    2.4294 C   0  0  0  0  0  0  0  0  0  0  0  0
    6.3158    3.7235    1.8542 C   0  0  0  0  0  0  0  0  0  0  0  0
    7.1648    2.7247    2.2676 O   0  0  0  0  0  0  0  0  0  0  0  0
    8.4333    3.2501    2.6665 C   0  0  0  0  0  0  0  0  0  0  0  0
    8.2840    4.1507    3.8830 C   0  0  0  0  0  0  0  0  0  0  0  0
    9.6550    4.6391    4.3324 C   0  0  0  0  0  0  0  0  0  0  0  0
   10.1896    5.8637    3.8946 C   0  0  0  0  0  0  0  0  0  0  0  0
   11.4624    6.2783    4.2972 C   0  0  0  0  0  0  0  0  0  0  0  0
   12.2170    5.4609    5.1297 C   0  0  0  0  0  0  0  0  0  0  0  0
   13.4637    5.8272    5.5441 O   0  0  0  0  0  0  0  0  0  0  0  0
   11.7244    4.2372    5.5632 C   0  0  0  0  0  0  0  0  0  0  0  0
   10.4518    3.8340    5.1605 C   0  0  0  0  0  0  0  0  0  0  0  0
    9.9651    2.6197    5.5606 O   0  0  0  0  0  0  0  0  0  0  0  0
    7.2759    5.2467    3.5704 C   0  0  0  0  0  0  0  0  0  0  0  0
    7.1765    6.2507    4.2733 O   0  0  0  0  0  0  0  0  0  0  0  0
    2.5749   -1.8405    0.4070 H   0  0  0  0  0  0  0  0  0  0  0  0
    1.9395   -0.3153    0.9953 H   0  0  0  0  0  0  0  0  0  0  0  0
    3.1402   -1.1994    1.9651 H   0  0  0  0  0  0  0  0  0  0  0  0
    4.9310   -2.0243   -0.4071 H   0  0  0  0  0  0  0  0  0  0  0  0
    5.6440   -1.3049    1.0509 H   0  0  0  0  0  0  0  0  0  0  0  0
    5.9597   -0.6190   -0.5616 H   0  0  0  0  0  0  0  0  0  0  0  0
    3.2797   -0.6624   -1.5505 H   0  0  0  0  0  0  0  0  0  0  0  0
    4.6027    0.9214    1.9893 H   0  0  0  0  0  0  0  0  0  0  0  0
    3.3571    1.7173    1.0361 H   0  0  0  0  0  0  0  0  0  0  0  0
    5.1776    2.0575   -0.8142 H   0  0  0  0  0  0  0  0  0  0  0  0
    6.3346    1.5160    0.3560 H   0  0  0  0  0  0  0  0  0  0  0  0
    3.5076    3.2394   -0.7829 H   0  0  0  0  0  0  0  0  0  0  0  0
    3.8744    6.4276    0.5494 H   0  0  0  0  0  0  0  0  0  0  0  0
    4.7547    7.7697    2.0780 H   0  0  0  0  0  0  0  0  0  0  0  0
    8.9027    3.7653    1.8159 H   0  0  0  0  0  0  0  0  0  0  0  0
    9.0712    2.3888    2.8963 H   0  0  0  0  0  0  0  0  0  0  0  0
    7.8124    3.5851    4.6992 H   0  0  0  0  0  0  0  0  0  0  0  0
    9.6136    6.5234    3.2477 H   0  0  0  0  0  0  0  0  0  0  0  0
   11.8383    7.2369    3.9534 H   0  0  0  0  0  0  0  0  0  0  0  0
   13.6490    6.7200    5.2082 H   0  0  0  0  0  0  0  0  0  0  0  0
   12.3413    3.6163    6.2039 H   0  0  0  0  0  0  0  0  0  0  0  0
   10.5905    2.2332    6.1969 H   0  0  0  0  0  0  0  0  0  0  0  0
  1  2  1  0  0  0  0
  1 28  1  0  0  0  0
  1 29  1  0  0  0  0
  1 30  1  0  0  0  0
  2  3  1  0  0  0  0
  2  4  1  0  0  0  0
  2  5  1  0  0  0  0
  3 31  1  0  0  0  0
  3 32  1  0  0  0  0
  3 33  1  0  0  0  0
  4 34  1  0  0  0  0
  5  6  1  0  0  0  0
  5 35  1  0  0  0  0
  5 36  1  0  0  0  0
  6  7  1  0  0  0  0
  6 37  1  0  0  0  0
  6 38  1  0  0  0  0
  7  8  1  0  0  0  0
  7 14  2  0  0  0  0
  8  9  1  0  0  0  0
  8 10  2  0  0  0  0
  9 39  1  0  0  0  0
 10 11  1  0  0  0  0
 10 40  1  0  0  0  0
 11 12  1  0  0  0  0
 11 13  2  0  0  0  0
 12 41  1  0  0  0  0
 13 14  1  0  0  0  0
 13 26  1  0  0  0  0
 14 15  1  0  0  0  0
 15 16  1  0  0  0  0
 16 17  1  0  0  0  0
 16 42  1  0  0  0  0
 16 43  1  0  0  0  0
 17 18  1  0  0  0  0
 17 26  1  0  0  0  0
 17 44  1  0  0  0  0
 18 19  1  0  0  0  0
 18 24  2  0  0  0  0
 19 20  2  0  0  0  0
 19 45  1  0  0  0  0
 20 21  1  0  0  0  0
 20 46  1  0  0  0  0
 21 22  1  0  0  0  0
 21 23  2  0  0  0  0
 22 47  1  0  0  0  0
 23 24  1  0  0  0  0
 23 48  1  0  0  0  0
 24 25  1  0  0  0  0
 25 49  1  0  0  0  0
 26 27  2  0  0  0  0
M  END
$$$$
