CHEBI:15521
 OpenBabel04242412333D

119121  0  0  1  0  0  0  0  0999 V2000
   20.2615    7.3277   28.9571 C   0  0  0  0  0  0  0  0  0  0  0  0
   20.4387    8.6247   29.7307 C   0  0  0  0  0  0  0  0  0  0  0  0
   21.8525    9.2145   29.6939 C   0  0  0  0  0  0  0  0  0  0  0  0
   22.2381    9.9532   28.4080 C   0  0  0  0  0  0  0  0  0  0  0  0
   22.5856    9.0295   27.2439 C   0  0  0  0  0  0  0  0  0  0  0  0
   23.0963    9.8076   26.0293 C   0  0  0  0  0  0  0  0  0  0  0  0
   23.3152    8.8583   24.8524 C   0  0  0  0  0  0  0  0  0  0  0  0
   23.7762    9.5934   23.5948 C   0  0  0  0  0  0  0  0  0  0  0  0
   23.9725    8.5994   22.4503 C   0  0  0  0  0  0  0  0  0  0  0  0
   24.4961    9.2771   21.1829 C   0  0  0  0  0  0  0  0  0  0  0  0
   24.6445    8.2971   20.0199 C   0  0  0  0  0  0  0  0  0  0  0  0
   25.6506    7.2083   20.3182 C   0  0  0  0  0  0  0  0  0  0  0  0
   25.3470    6.1557   20.8634 O   0  0  0  0  0  0  0  0  0  0  0  0
   27.3126    7.5844   19.8713 S   0  0  0  0  0  0  0  0  0  0  0  0
   28.1780    6.1922   20.6811 C   0  0  0  0  0  0  0  0  0  0  0  0
   27.9815    4.8565   19.9634 C   0  0  0  0  0  0  0  0  0  0  0  0
   28.3637    4.9048   18.5642 N   0  0  0  0  0  0  0  0  0  0  0  0
   28.3122    3.7645   17.7902 C   0  0  0  0  0  0  0  0  0  0  0  0
   28.0837    2.6506   18.2443 O   0  0  0  0  0  0  0  0  0  0  0  0
   28.5741    4.0372   16.3281 C   0  0  0  0  0  0  0  0  0  0  0  0
   28.3565    2.7802   15.4961 C   0  0  0  0  0  0  0  0  0  0  0  0
   28.5720    3.0086   14.0796 N   0  0  0  0  0  0  0  0  0  0  0  0
   29.8393    3.2164   13.5657 C   0  0  0  0  0  0  0  0  0  0  0  0
   30.8339    3.3282   14.2708 O   0  0  0  0  0  0  0  0  0  0  0  0
   29.8347    3.3047   12.0239 C   0  0  2  0  0  0  0  0  0  0  0  0
   29.1442    2.1563   11.5119 O   0  0  0  0  0  0  0  0  0  0  0  0
   31.2078    3.4915   11.3257 C   0  0  0  0  0  0  0  0  0  0  0  0
   31.8630    4.8176   11.7752 C   0  0  0  0  0  0  0  0  0  0  0  0
   32.1797    2.3293   11.6133 C   0  0  0  0  0  0  0  0  0  0  0  0
   30.9578    3.5487    9.7943 C   0  0  0  0  0  0  0  0  0  0  0  0
   32.1691    3.8301    9.1179 O   0  0  0  0  0  0  0  0  0  0  0  0
   32.1665    4.0371    7.5314 P   0  0  0  0  0  0  0  0  0  0  0  0
   32.0828    2.7796    6.7193 O   0  0  0  0  0  0  0  0  0  0  0  0
   30.9278    5.0137    7.2660 O   0  0  0  0  0  0  0  0  0  0  0  0
   33.4410    4.9329    7.2745 O   0  0  0  0  0  0  0  0  0  0  0  0
   33.8016    5.6986    5.9458 P   0  0  0  0  0  0  0  0  0  0  0  0
   34.0407    7.1653    6.0750 O   0  0  0  0  0  0  0  0  0  0  0  0
   35.1236    4.9385    5.4506 O   0  0  0  0  0  0  0  0  0  0  0  0
   32.7123    5.2704    4.8423 O   0  0  0  0  0  0  0  0  0  0  0  0
   32.9109    5.8448    3.5644 C   0  0  0  0  0  0  0  0  0  0  0  0
   32.0139    5.2423    2.4869 C   0  0  1  0  0  0  0  0  0  0  0  0
   32.5097    5.6868    1.2079 O   0  0  0  0  0  0  0  0  0  0  0  0
   32.4544    4.5744    0.2840 C   0  0  1  0  0  0  0  0  0  0  0  0
   33.8089    4.2098   -0.0954 N   0  0  0  0  0  0  0  0  0  0  0  0
   34.9712    4.4704    0.5805 C   0  0  0  0  0  0  0  0  0  0  0  0
   36.0262    3.9719   -0.0276 N   0  0  0  0  0  0  0  0  0  0  0  0
   35.5275    3.4076   -1.1809 C   0  0  0  0  0  0  0  0  0  0  0  0
   36.1464    2.7434   -2.2516 C   0  0  0  0  0  0  0  0  0  0  0  0
   37.5183    2.5353   -2.3212 N   0  0  0  0  0  0  0  0  0  0  0  0
   35.3694    2.2688   -3.2509 N   0  0  0  0  0  0  0  0  0  0  0  0
   34.0356    2.4765   -3.1790 C   0  0  0  0  0  0  0  0  0  0  0  0
   33.3321    3.0907   -2.2045 N   0  0  0  0  0  0  0  0  0  0  0  0
   34.1492    3.5362   -1.2376 C   0  0  0  0  0  0  0  0  0  0  0  0
   31.6864    3.4485    0.9848 C   0  0  2  0  0  0  0  0  0  0  0  0
   30.2785    3.5899    0.7293 O   0  0  0  0  0  0  0  0  0  0  0  0
   31.9793    3.7141    2.4583 C   0  0  2  0  0  0  0  0  0  0  0  0
   30.9606    3.2242    3.3176 O   0  0  0  0  0  0  0  0  0  0  0  0
   30.9716    1.6988    3.7965 P   0  0  0  0  0  0  0  0  0  0  0  0
   29.7991    1.2693    4.6047 O   0  0  0  0  0  0  0  0  0  0  0  0
   31.1278    0.8692    2.4419 O   0  0  0  0  0  0  0  0  0  0  0  0
   32.3836    1.4942    4.4980 O   0  0  0  0  0  0  0  0  0  0  0  0
   19.3629    6.8061   29.3031 H   0  0  0  0  0  0  0  0  0  0  0  0
   21.1148    6.6562   29.0931 H   0  0  0  0  0  0  0  0  0  0  0  0
   20.1225    7.5124   27.8896 H   0  0  0  0  0  0  0  0  0  0  0  0
   20.1986    8.4145   30.7806 H   0  0  0  0  0  0  0  0  0  0  0  0
   19.7063    9.3641   29.3871 H   0  0  0  0  0  0  0  0  0  0  0  0
   22.5937    8.4401   29.9248 H   0  0  0  0  0  0  0  0  0  0  0  0
   21.9127    9.9459   30.5108 H   0  0  0  0  0  0  0  0  0  0  0  0
   23.1166   10.5731   28.6294 H   0  0  0  0  0  0  0  0  0  0  0  0
   21.4356   10.6414   28.1174 H   0  0  0  0  0  0  0  0  0  0  0  0
   21.7026    8.4658   26.9382 H   0  0  0  0  0  0  0  0  0  0  0  0
   23.3444    8.3029   27.5585 H   0  0  0  0  0  0  0  0  0  0  0  0
   24.0351   10.3158   26.2795 H   0  0  0  0  0  0  0  0  0  0  0  0
   22.3698   10.5800   25.7504 H   0  0  0  0  0  0  0  0  0  0  0  0
   22.3820    8.3234   24.6358 H   0  0  0  0  0  0  0  0  0  0  0  0
   24.0601    8.1019   25.1297 H   0  0  0  0  0  0  0  0  0  0  0  0
   24.7163   10.1200   23.7971 H   0  0  0  0  0  0  0  0  0  0  0  0
   23.0330   10.3468   23.3083 H   0  0  0  0  0  0  0  0  0  0  0  0
   23.0215    8.0977   22.2324 H   0  0  0  0  0  0  0  0  0  0  0  0
   24.6774    7.8266   22.7772 H   0  0  0  0  0  0  0  0  0  0  0  0
   25.4593    9.7558   21.3955 H   0  0  0  0  0  0  0  0  0  0  0  0
   23.8016   10.0713   20.8836 H   0  0  0  0  0  0  0  0  0  0  0  0
   24.9338    8.8330   19.1087 H   0  0  0  0  0  0  0  0  0  0  0  0
   23.6842    7.8154   19.7992 H   0  0  0  0  0  0  0  0  0  0  0  0
   27.8654    6.1180   21.7278 H   0  0  0  0  0  0  0  0  0  0  0  0
   29.2439    6.4462   20.6801 H   0  0  0  0  0  0  0  0  0  0  0  0
   26.9447    4.5102   20.0130 H   0  0  0  0  0  0  0  0  0  0  0  0
   28.5922    4.0872   20.4508 H   0  0  0  0  0  0  0  0  0  0  0  0
   28.3268    5.8032   18.0970 H   0  0  0  0  0  0  0  0  0  0  0  0
   29.6020    4.4033   16.2317 H   0  0  0  0  0  0  0  0  0  0  0  0
   27.9022    4.8331   15.9855 H   0  0  0  0  0  0  0  0  0  0  0  0
   27.3263    2.4238   15.6073 H   0  0  0  0  0  0  0  0  0  0  0  0
   29.0270    1.9751   15.8178 H   0  0  0  0  0  0  0  0  0  0  0  0
   27.8625    2.7013   13.4201 H   0  0  0  0  0  0  0  0  0  0  0  0
   29.2044    4.1706   11.7792 H   0  0  0  0  0  0  0  0  0  0  0  0
   29.6283    1.3690   11.8235 H   0  0  0  0  0  0  0  0  0  0  0  0
   32.1070    4.8198   12.8411 H   0  0  0  0  0  0  0  0  0  0  0  0
   31.1977    5.6673   11.5844 H   0  0  0  0  0  0  0  0  0  0  0  0
   32.8018    5.0073   11.2431 H   0  0  0  0  0  0  0  0  0  0  0  0
   32.3841    2.2179   12.6817 H   0  0  0  0  0  0  0  0  0  0  0  0
   33.1466    2.4903   11.1226 H   0  0  0  0  0  0  0  0  0  0  0  0
   31.7841    1.3761   11.2475 H   0  0  0  0  0  0  0  0  0  0  0  0
   30.2324    4.3388    9.5700 H   0  0  0  0  0  0  0  0  0  0  0  0
   30.5606    2.6011    9.4150 H   0  0  0  0  0  0  0  0  0  0  0  0
   30.4083    4.7281    6.4888 H   0  0  0  0  0  0  0  0  0  0  0  0
   35.9230    5.3769    5.8005 H   0  0  0  0  0  0  0  0  0  0  0  0
   33.9608    5.7279    3.2799 H   0  0  0  0  0  0  0  0  0  0  0  0
   32.7296    6.9243    3.6224 H   0  0  0  0  0  0  0  0  0  0  0  0
   30.9974    5.6350    2.6180 H   0  0  0  0  0  0  0  0  0  0  0  0
   31.9438    4.9280   -0.6188 H   0  0  0  0  0  0  0  0  0  0  0  0
   35.0060    5.0276    1.5048 H   0  0  0  0  0  0  0  0  0  0  0  0
   37.9797    2.6030   -1.4206 H   0  0  0  0  0  0  0  0  0  0  0  0
   37.7566    1.7534   -2.9159 H   0  0  0  0  0  0  0  0  0  0  0  0
   33.4554    2.0972   -4.0157 H   0  0  0  0  0  0  0  0  0  0  0  0
   31.9813    2.4505    0.6494 H   0  0  0  0  0  0  0  0  0  0  0  0
   29.8274    2.9393    1.2993 H   0  0  0  0  0  0  0  0  0  0  0  0
   32.9577    3.3032    2.7332 H   0  0  0  0  0  0  0  0  0  0  0  0
   30.9597   -0.0787    2.6033 H   0  0  0  0  0  0  0  0  0  0  0  0
   32.3408    1.8139    5.4358 H   0  0  0  0  0  0  0  0  0  0  0  0
  1  2  1  0  0  0  0
  1 62  1  0  0  0  0
  1 63  1  0  0  0  0
  1 64  1  0  0  0  0
  2  3  1  0  0  0  0
  2 65  1  0  0  0  0
  2 66  1  0  0  0  0
  3  4  1  0  0  0  0
  3 67  1  0  0  0  0
  3 68  1  0  0  0  0
  4  5  1  0  0  0  0
  4 69  1  0  0  0  0
  4 70  1  0  0  0  0
  5  6  1  0  0  0  0
  5 71  1  0  0  0  0
  5 72  1  0  0  0  0
  6  7  1  0  0  0  0
  6 73  1  0  0  0  0
  6 74  1  0  0  0  0
  7  8  1  0  0  0  0
  7 75  1  0  0  0  0
  7 76  1  0  0  0  0
  8  9  1  0  0  0  0
  8 77  1  0  0  0  0
  8 78  1  0  0  0  0
  9 10  1  0  0  0  0
  9 79  1  0  0  0  0
  9 80  1  0  0  0  0
 10 11  1  0  0  0  0
 10 81  1  0  0  0  0
 10 82  1  0  0  0  0
 11 12  1  0  0  0  0
 11 83  1  0  0  0  0
 11 84  1  0  0  0  0
 12 13  2  0  0  0  0
 12 14  1  0  0  0  0
 14 15  1  0  0  0  0
 15 16  1  0  0  0  0
 15 85  1  0  0  0  0
 15 86  1  0  0  0  0
 16 17  1  0  0  0  0
 16 87  1  0  0  0  0
 16 88  1  0  0  0  0
 17 18  1  0  0  0  0
 17 89  1  0  0  0  0
 18 19  2  0  0  0  0
 18 20  1  0  0  0  0
 20 21  1  0  0  0  0
 20 90  1  0  0  0  0
 20 91  1  0  0  0  0
 21 22  1  0  0  0  0
 21 92  1  0  0  0  0
 21 93  1  0  0  0  0
 22 23  1  0  0  0  0
 22 94  1  0  0  0  0
 23 24  2  0  0  0  0
 25 27  1  0  0  0  0
 25 26  1  0  0  0  0
 25 23  1  0  0  0  0
 25 95  1  6  0  0  0
 26 96  1  0  0  0  0
 27 28  1  0  0  0  0
 27 29  1  0  0  0  0
 27 30  1  0  0  0  0
 28 97  1  0  0  0  0
 28 98  1  0  0  0  0
 28 99  1  0  0  0  0
 29100  1  0  0  0  0
 29101  1  0  0  0  0
 29102  1  0  0  0  0
 30 31  1  0  0  0  0
 30103  1  0  0  0  0
 30104  1  0  0  0  0
 31 32  1  0  0  0  0
 32 33  2  0  0  0  0
 32 34  1  0  0  0  0
 32 35  1  0  0  0  0
 34105  1  0  0  0  0
 35 36  1  0  0  0  0
 36 37  2  0  0  0  0
 36 38  1  0  0  0  0
 36 39  1  0  0  0  0
 38106  1  0  0  0  0
 39 40  1  0  0  0  0
 40107  1  0  0  0  0
 40108  1  0  0  0  0
 41 42  1  0  0  0  0
 41 56  1  0  0  0  0
 41 40  1  0  0  0  0
 41109  1  1  0  0  0
 42 43  1  0  0  0  0
 43 54  1  0  0  0  0
 43 44  1  0  0  0  0
 43110  1  6  0  0  0
 44 45  1  0  0  0  0
 44 53  1  0  0  0  0
 45 46  2  0  0  0  0
 45111  1  0  0  0  0
 46 47  1  0  0  0  0
 47 48  1  0  0  0  0
 47 53  2  0  0  0  0
 48 49  1  0  0  0  0
 48 50  2  0  0  0  0
 49112  1  0  0  0  0
 49113  1  0  0  0  0
 50 51  1  0  0  0  0
 51 52  2  0  0  0  0
 51114  1  0  0  0  0
 52 53  1  0  0  0  0
 54 55  1  0  0  0  0
 54 56  1  0  0  0  0
 54115  1  6  0  0  0
 55116  1  0  0  0  0
 56 57  1  0  0  0  0
 56117  1  1  0  0  0
 57 58  1  0  0  0  0
 58 59  2  0  0  0  0
 58 60  1  0  0  0  0
 58 61  1  0  0  0  0
 60118  1  0  0  0  0
 61119  1  0  0  0  0
M  END
$$$$
