CHEBI:17631
 OpenBabel04242416593D

 87 90  0  0  1  0  0  0  0  0999 V2000
   -5.4287   -3.2291    1.8178 O   0  0  0  0  0  0  0  0  0  0  0  0
   -4.9639   -1.9194    1.4824 C   0  0  0  0  0  0  0  0  0  0  0  0
   -4.4217   -1.8808    0.0491 C   0  0  1  0  0  0  0  0  0  0  0  0
   -3.2785   -2.7622   -0.0197 O   0  0  0  0  0  0  0  0  0  0  0  0
   -2.6110   -2.7156   -1.2810 C   0  0  2  0  0  0  0  0  0  0  0  0
   -2.1306   -1.4143   -1.5847 O   0  0  0  0  0  0  0  0  0  0  0  0
   -0.8862   -1.0432   -0.9449 C   0  0  2  0  0  0  0  0  0  0  0  0
   -0.9670   -0.9702    0.5921 C   0  0  2  0  0  0  0  0  0  0  0  0
   -2.0471   -0.1174    1.0166 O   0  0  0  0  0  0  0  0  0  0  0  0
    0.3459   -0.4017    1.1503 C   0  0  1  0  0  0  0  0  0  0  0  0
    1.5112   -1.1317    0.8058 O   0  0  0  0  0  0  0  0  0  0  0  0
    1.7185   -2.4056    1.4436 C   0  0  2  0  0  0  0  0  0  0  0  0
    1.5682   -2.4077    2.9865 C   0  0  1  0  0  0  0  0  0  0  0  0
    1.7346   -3.7333    3.4796 O   0  0  0  0  0  0  0  0  0  0  0  0
    1.5712   -3.9018    4.9051 C   0  0  2  0  0  0  0  0  0  0  0  0
    2.0039   -5.3524    5.2263 C   0  0  0  0  0  0  0  0  0  0  0  0
    2.0247   -5.5838    6.6226 O   0  0  0  0  0  0  0  0  0  0  0  0
    1.1538   -6.3068    4.5881 O   0  0  0  0  0  0  0  0  0  0  0  0
   -0.2411   -6.1763    4.9347 C   0  0  2  0  0  0  0  0  0  0  0  0
   -1.0096   -7.1993    4.0885 C   0  0  0  0  0  0  0  0  0  0  0  0
   -0.4867   -8.5101    4.3205 O   0  0  0  0  0  0  0  0  0  0  0  0
   -0.7767   -4.7590    4.6905 C   0  0  1  0  0  0  0  0  0  0  0  0
   -2.1142   -4.6219    5.1772 O   0  0  0  0  0  0  0  0  0  0  0  0
    0.1223   -3.7421    5.3978 C   0  0  2  0  0  0  0  0  0  0  0  0
   -0.4119   -2.4267    5.1889 O   0  0  0  0  0  0  0  0  0  0  0  0
    2.4687   -1.4827    3.5829 O   0  0  0  0  0  0  0  0  0  0  0  0
    3.8563   -1.7330    3.3005 C   0  0  2  0  0  0  0  0  0  0  0  0
    4.6712   -0.5802    3.9111 C   0  0  0  0  0  0  0  0  0  0  0  0
    4.5481   -0.5662    5.3363 O   0  0  0  0  0  0  0  0  0  0  0  0
    4.1439   -1.8502    1.7968 C   0  0  1  0  0  0  0  0  0  0  0  0
    5.4822   -2.3148    1.5801 O   0  0  0  0  0  0  0  0  0  0  0  0
    3.1659   -2.8266    1.1298 C   0  0  2  0  0  0  0  0  0  0  0  0
    3.4495   -2.8393   -0.2808 O   0  0  0  0  0  0  0  0  0  0  0  0
    0.4566    0.9442    0.6791 O   0  0  0  0  0  0  0  0  0  0  0  0
    0.6012    1.0557   -0.7409 C   0  0  2  0  0  0  0  0  0  0  0  0
    0.5869    2.5621   -1.0600 C   0  0  0  0  0  0  0  0  0  0  0  0
   -0.6775    3.1422   -0.7237 O   0  0  0  0  0  0  0  0  0  0  0  0
   -0.5010    0.3265   -1.5353 C   0  0  1  0  0  0  0  0  0  0  0  0
   -0.0537    0.1289   -2.8892 O   0  0  0  0  0  0  0  0  0  0  0  0
   -3.5865   -3.2025   -2.3716 C   0  0  1  0  0  0  0  0  0  0  0  0
   -3.9729   -4.5746   -2.1415 O   0  0  0  0  0  0  0  0  0  0  0  0
   -4.8532   -2.3418   -2.3785 C   0  0  1  0  0  0  0  0  0  0  0  0
   -5.8260   -2.8887   -3.2884 O   0  0  0  0  0  0  0  0  0  0  0  0
   -5.4872   -2.2673   -0.9837 C   0  0  2  0  0  0  0  0  0  0  0  0
   -6.5510   -1.3064   -1.0125 O   0  0  0  0  0  0  0  0  0  0  0  0
   -5.6891   -3.1950    2.7546 H   0  0  0  0  0  0  0  0  0  0  0  0
   -4.1668   -1.6659    2.1893 H   0  0  0  0  0  0  0  0  0  0  0  0
   -5.7902   -1.2134    1.6114 H   0  0  0  0  0  0  0  0  0  0  0  0
   -4.1022   -0.8498   -0.1425 H   0  0  0  0  0  0  0  0  0  0  0  0
   -1.7749   -3.4231   -1.2284 H   0  0  0  0  0  0  0  0  0  0  0  0
   -0.1322   -1.7824   -1.2466 H   0  0  0  0  0  0  0  0  0  0  0  0
   -1.1506   -1.9657    1.0059 H   0  0  0  0  0  0  0  0  0  0  0  0
   -1.7245    0.8064    0.9630 H   0  0  0  0  0  0  0  0  0  0  0  0
    0.2683   -0.2879    2.2342 H   0  0  0  0  0  0  0  0  0  0  0  0
    1.0334   -3.1293    0.9864 H   0  0  0  0  0  0  0  0  0  0  0  0
    0.5565   -2.0784    3.2086 H   0  0  0  0  0  0  0  0  0  0  0  0
    2.2214   -3.1955    5.4340 H   0  0  0  0  0  0  0  0  0  0  0  0
    3.0147   -5.5164    4.8360 H   0  0  0  0  0  0  0  0  0  0  0  0
    2.4956   -6.4278    6.7383 H   0  0  0  0  0  0  0  0  0  0  0  0
   -0.3557   -6.4591    5.9891 H   0  0  0  0  0  0  0  0  0  0  0  0
   -2.0766   -7.2077    4.3281 H   0  0  0  0  0  0  0  0  0  0  0  0
   -0.8887   -6.9909    3.0199 H   0  0  0  0  0  0  0  0  0  0  0  0
    0.4830   -8.4140    4.2678 H   0  0  0  0  0  0  0  0  0  0  0  0
   -0.8059   -4.5363    3.6166 H   0  0  0  0  0  0  0  0  0  0  0  0
   -2.2860   -3.6582    5.1877 H   0  0  0  0  0  0  0  0  0  0  0  0
    0.0678   -3.9039    6.4816 H   0  0  0  0  0  0  0  0  0  0  0  0
    0.1618   -1.8026    5.6748 H   0  0  0  0  0  0  0  0  0  0  0  0
    4.1461   -2.6583    3.8147 H   0  0  0  0  0  0  0  0  0  0  0  0
    5.7351   -0.6551    3.6660 H   0  0  0  0  0  0  0  0  0  0  0  0
    4.2971    0.3841    3.5505 H   0  0  0  0  0  0  0  0  0  0  0  0
    4.9987   -1.3597    5.6711 H   0  0  0  0  0  0  0  0  0  0  0  0
    4.0683   -0.8677    1.3142 H   0  0  0  0  0  0  0  0  0  0  0  0
    5.5280   -2.5031    0.6198 H   0  0  0  0  0  0  0  0  0  0  0  0
    3.3606   -3.8467    1.4820 H   0  0  0  0  0  0  0  0  0  0  0  0
    2.6969   -3.2563   -0.7343 H   0  0  0  0  0  0  0  0  0  0  0  0
    1.5888    0.6688   -1.0221 H   0  0  0  0  0  0  0  0  0  0  0  0
    1.3393    3.0795   -0.4559 H   0  0  0  0  0  0  0  0  0  0  0  0
    0.7964    2.7546   -2.1167 H   0  0  0  0  0  0  0  0  0  0  0  0
   -1.1672    3.3121   -1.5472 H   0  0  0  0  0  0  0  0  0  0  0  0
   -1.4149    0.9304   -1.5890 H   0  0  0  0  0  0  0  0  0  0  0  0
   -0.2633    0.9332   -3.3949 H   0  0  0  0  0  0  0  0  0  0  0  0
   -3.1186   -3.1654   -3.3613 H   0  0  0  0  0  0  0  0  0  0  0  0
   -4.0703   -4.6835   -1.1729 H   0  0  0  0  0  0  0  0  0  0  0  0
   -4.6286   -1.3304   -2.7374 H   0  0  0  0  0  0  0  0  0  0  0  0
   -5.7031   -3.8599   -3.2508 H   0  0  0  0  0  0  0  0  0  0  0  0
   -5.9388   -3.2355   -0.7376 H   0  0  0  0  0  0  0  0  0  0  0  0
   -7.0722   -1.5241   -1.8112 H   0  0  0  0  0  0  0  0  0  0  0  0
  1  2  1  0  0  0  0
  1 46  1  0  0  0  0
  2 47  1  0  0  0  0
  2 48  1  0  0  0  0
  3  4  1  0  0  0  0
  3 44  1  0  0  0  0
  3  2  1  0  0  0  0
  3 49  1  6  0  0  0
  4  5  1  0  0  0  0
  5  6  1  0  0  0  0
  5 40  1  0  0  0  0
  5 50  1  1  0  0  0
  6  7  1  0  0  0  0
  7  8  1  0  0  0  0
  7 38  1  0  0  0  0
  7 51  1  6  0  0  0
  8  9  1  0  0  0  0
  8 10  1  0  0  0  0
  8 52  1  1  0  0  0
  9 53  1  0  0  0  0
 10 11  1  0  0  0  0
 10 34  1  0  0  0  0
 10 54  1  1  0  0  0
 11 12  1  0  0  0  0
 12 13  1  0  0  0  0
 12 32  1  0  0  0  0
 12 55  1  6  0  0  0
 13 14  1  0  0  0  0
 13 26  1  0  0  0  0
 13 56  1  1  0  0  0
 14 15  1  0  0  0  0
 15 16  1  0  0  0  0
 15 24  1  0  0  0  0
 15 57  1  1  0  0  0
 16 17  1  0  0  0  0
 16 18  1  0  0  0  0
 16 58  1  0  0  0  0
 17 59  1  0  0  0  0
 18 19  1  0  0  0  0
 19 22  1  0  0  0  0
 19 20  1  0  0  0  0
 19 60  1  1  0  0  0
 20 21  1  0  0  0  0
 20 61  1  0  0  0  0
 20 62  1  0  0  0  0
 21 63  1  0  0  0  0
 22 23  1  0  0  0  0
 22 24  1  0  0  0  0
 22 64  1  6  0  0  0
 23 65  1  0  0  0  0
 24 25  1  0  0  0  0
 24 66  1  1  0  0  0
 25 67  1  0  0  0  0
 26 27  1  0  0  0  0
 27 30  1  0  0  0  0
 27 28  1  0  0  0  0
 27 68  1  1  0  0  0
 28 29  1  0  0  0  0
 28 69  1  0  0  0  0
 28 70  1  0  0  0  0
 29 71  1  0  0  0  0
 30 31  1  0  0  0  0
 30 32  1  0  0  0  0
 30 72  1  6  0  0  0
 31 73  1  0  0  0  0
 32 33  1  0  0  0  0
 32 74  1  1  0  0  0
 33 75  1  0  0  0  0
 34 35  1  0  0  0  0
 35 38  1  0  0  0  0
 35 36  1  0  0  0  0
 35 76  1  6  0  0  0
 36 37  1  0  0  0  0
 36 77  1  0  0  0  0
 36 78  1  0  0  0  0
 37 79  1  0  0  0  0
 38 39  1  0  0  0  0
 38 80  1  6  0  0  0
 39 81  1  0  0  0  0
 40 41  1  0  0  0  0
 40 42  1  0  0  0  0
 40 82  1  6  0  0  0
 41 83  1  0  0  0  0
 42 43  1  0  0  0  0
 42 44  1  0  0  0  0
 42 84  1  6  0  0  0
 43 85  1  0  0  0  0
 44 45  1  0  0  0  0
 44 86  1  1  0  0  0
 45 87  1  0  0  0  0
M  END
$$$$
