CHEBI:27395
 OpenBabel04252409473D

 69 72  0  0  1  0  0  0  0  0999 V2000
    8.2951   -1.8321   -1.4052 O   0  0  0  0  0  0  0  0  0  0  0  0
    7.4519   -2.6557   -1.7222 C   0  0  0  0  0  0  0  0  0  0  0  0
    6.1308   -2.5844   -1.4430 O   0  0  0  0  0  0  0  0  0  0  0  0
    5.7334   -1.6026   -0.4705 C   0  0  0  0  0  0  0  0  0  0  0  0
    5.7585   -2.2045    0.9470 C   0  0  1  0  0  0  0  0  0  0  0  0
    4.8523   -3.3224    0.9739 O   0  0  0  0  0  0  0  0  0  0  0  0
    4.6767   -3.8560    2.2853 C   0  0  1  0  0  0  0  0  0  0  0  0
    3.7631   -4.9772    2.3125 O   0  0  0  0  0  0  0  0  0  0  0  0
    4.0280   -6.0437    1.5245 C   0  0  0  0  0  0  0  0  0  0  0  0
    4.8460   -6.1222    0.6212 O   0  0  0  0  0  0  0  0  0  0  0  0
    3.1979   -7.1914    1.9729 C   0  0  0  0  0  0  0  0  0  0  0  0
    2.7810   -7.3087    3.3141 C   0  0  0  0  0  0  0  0  0  0  0  0
    2.0772   -8.4398    3.7132 C   0  0  0  0  0  0  0  0  0  0  0  0
    1.6699   -8.6266    5.0043 O   0  0  0  0  0  0  0  0  0  0  0  0
    1.7797   -9.4378    2.7925 C   0  0  0  0  0  0  0  0  0  0  0  0
    1.0937  -10.5572    3.1777 O   0  0  0  0  0  0  0  0  0  0  0  0
    2.1914   -9.3196    1.4710 C   0  0  0  0  0  0  0  0  0  0  0  0
    1.9076  -10.3101    0.5767 O   0  0  0  0  0  0  0  0  0  0  0  0
    2.9061   -8.2061    1.0501 C   0  0  0  0  0  0  0  0  0  0  0  0
    6.0006   -4.2616    2.9765 C   0  0  2  0  0  0  0  0  0  0  0  0
    5.7835   -4.6781    4.3558 O   0  0  0  0  0  0  0  0  0  0  0  0
    5.3427   -3.7531    5.2374 C   0  0  0  0  0  0  0  0  0  0  0  0
    5.0904   -2.5849    4.9890 O   0  0  0  0  0  0  0  0  0  0  0  0
    5.1779   -4.3394    6.5869 C   0  0  0  0  0  0  0  0  0  0  0  0
    5.1357   -3.4581    7.6830 C   0  0  0  0  0  0  0  0  0  0  0  0
    4.9348   -3.9676    8.9600 C   0  0  0  0  0  0  0  0  0  0  0  0
    4.8914   -3.1635   10.0637 O   0  0  0  0  0  0  0  0  0  0  0  0
    4.7594   -5.3338    9.1456 C   0  0  0  0  0  0  0  0  0  0  0  0
    4.5446   -5.8443   10.3963 O   0  0  0  0  0  0  0  0  0  0  0  0
    4.7930   -6.2004    8.0600 C   0  0  0  0  0  0  0  0  0  0  0  0
    4.5948   -7.5376    8.2452 O   0  0  0  0  0  0  0  0  0  0  0  0
    5.0123   -5.7190    6.7770 C   0  0  0  0  0  0  0  0  0  0  0  0
    7.0783   -3.1792    2.8419 C   0  0  1  0  0  0  0  0  0  0  0  0
    8.3568   -3.7214    3.2162 O   0  0  0  0  0  0  0  0  0  0  0  0
    7.1541   -2.6670    1.3999 C   0  0  2  0  0  0  0  0  0  0  0  0
    8.1175   -1.6107    1.3610 O   0  0  0  0  0  0  0  0  0  0  0  0
    7.7647   -3.9906   -2.2833 C   0  0  0  0  0  0  0  0  0  0  0  0
    6.9145   -5.0842   -2.0343 C   0  0  0  0  0  0  0  0  0  0  0  0
    7.2998   -6.3542   -2.4386 C   0  0  0  0  0  0  0  0  0  0  0  0
    6.5339   -7.4514   -2.1606 O   0  0  0  0  0  0  0  0  0  0  0  0
    8.5044   -6.5366   -3.1064 C   0  0  0  0  0  0  0  0  0  0  0  0
    8.8977   -7.7857   -3.5020 O   0  0  0  0  0  0  0  0  0  0  0  0
    9.3415   -5.4536   -3.3535 C   0  0  0  0  0  0  0  0  0  0  0  0
   10.5382   -5.6445   -3.9810 O   0  0  0  0  0  0  0  0  0  0  0  0
    8.9879   -4.1764   -2.9398 C   0  0  0  0  0  0  0  0  0  0  0  0
    4.7050   -1.3248   -0.7266 H   0  0  0  0  0  0  0  0  0  0  0  0
    6.3418   -0.6939   -0.5400 H   0  0  0  0  0  0  0  0  0  0  0  0
    5.3847   -1.4276    1.6276 H   0  0  0  0  0  0  0  0  0  0  0  0
    4.1599   -3.0846    2.8625 H   0  0  0  0  0  0  0  0  0  0  0  0
    3.0237   -6.5339    4.0341 H   0  0  0  0  0  0  0  0  0  0  0  0
    2.0512   -7.9264    5.5644 H   0  0  0  0  0  0  0  0  0  0  0  0
    0.9293  -10.4244    4.1346 H   0  0  0  0  0  0  0  0  0  0  0  0
    1.4223  -10.9841    1.0956 H   0  0  0  0  0  0  0  0  0  0  0  0
    3.2351   -8.1370    0.0170 H   0  0  0  0  0  0  0  0  0  0  0  0
    6.3914   -5.1650    2.4926 H   0  0  0  0  0  0  0  0  0  0  0  0
    5.2593   -2.3903    7.5206 H   0  0  0  0  0  0  0  0  0  0  0  0
    5.0525   -2.2438    9.7859 H   0  0  0  0  0  0  0  0  0  0  0  0
    4.5706   -5.0625   10.9867 H   0  0  0  0  0  0  0  0  0  0  0  0
    4.5066   -7.6438    9.2156 H   0  0  0  0  0  0  0  0  0  0  0  0
    5.0443   -6.4155    5.9449 H   0  0  0  0  0  0  0  0  0  0  0  0
    6.9148   -2.3377    3.5201 H   0  0  0  0  0  0  0  0  0  0  0  0
    9.0118   -3.0468    2.9457 H   0  0  0  0  0  0  0  0  0  0  0  0
    7.5290   -3.4900    0.7809 H   0  0  0  0  0  0  0  0  0  0  0  0
    8.4087   -1.5120    0.4261 H   0  0  0  0  0  0  0  0  0  0  0  0
    5.9804   -4.9483   -1.4946 H   0  0  0  0  0  0  0  0  0  0  0  0
    5.8437   -7.1810   -1.5215 H   0  0  0  0  0  0  0  0  0  0  0  0
    8.1669   -8.3702   -3.2110 H   0  0  0  0  0  0  0  0  0  0  0  0
   10.5805   -6.6085   -4.1464 H   0  0  0  0  0  0  0  0  0  0  0  0
    9.6669   -3.3445   -3.1066 H   0  0  0  0  0  0  0  0  0  0  0  0
  1  2  2  0  0  0  0
  2  3  1  0  0  0  0
  2 37  1  0  0  0  0
  3  4  1  0  0  0  0
  4  5  1  0  0  0  0
  4 46  1  0  0  0  0
  4 47  1  0  0  0  0
  5  6  1  0  0  0  0
  5 35  1  0  0  0  0
  5 48  1  1  0  0  0
  6  7  1  0  0  0  0
  7  8  1  0  0  0  0
  7 20  1  0  0  0  0
  7 49  1  1  0  0  0
  8  9  1  0  0  0  0
  9 10  2  0  0  0  0
  9 11  1  0  0  0  0
 11 12  1  0  0  0  0
 11 19  2  0  0  0  0
 12 13  2  0  0  0  0
 12 50  1  0  0  0  0
 13 14  1  0  0  0  0
 13 15  1  0  0  0  0
 14 51  1  0  0  0  0
 15 16  1  0  0  0  0
 15 17  2  0  0  0  0
 16 52  1  0  0  0  0
 17 18  1  0  0  0  0
 17 19  1  0  0  0  0
 18 53  1  0  0  0  0
 19 54  1  0  0  0  0
 20 33  1  0  0  0  0
 20 21  1  0  0  0  0
 20 55  1  6  0  0  0
 21 22  1  0  0  0  0
 22 23  2  0  0  0  0
 22 24  1  0  0  0  0
 24 25  1  0  0  0  0
 24 32  2  0  0  0  0
 25 26  2  0  0  0  0
 25 56  1  0  0  0  0
 26 27  1  0  0  0  0
 26 28  1  0  0  0  0
 27 57  1  0  0  0  0
 28 29  1  0  0  0  0
 28 30  2  0  0  0  0
 29 58  1  0  0  0  0
 30 31  1  0  0  0  0
 30 32  1  0  0  0  0
 31 59  1  0  0  0  0
 32 60  1  0  0  0  0
 33 34  1  0  0  0  0
 33 35  1  0  0  0  0
 33 61  1  1  0  0  0
 34 62  1  0  0  0  0
 35 36  1  0  0  0  0
 35 63  1  6  0  0  0
 36 64  1  0  0  0  0
 37 38  1  0  0  0  0
 37 45  2  0  0  0  0
 38 39  2  0  0  0  0
 38 65  1  0  0  0  0
 39 40  1  0  0  0  0
 39 41  1  0  0  0  0
 40 66  1  0  0  0  0
 41 42  1  0  0  0  0
 41 43  2  0  0  0  0
 42 67  1  0  0  0  0
 43 44  1  0  0  0  0
 43 45  1  0  0  0  0
 44 68  1  0  0  0  0
 45 69  1  0  0  0  0
M  END
$$$$
