CHEBI:18177
 OpenBabel04242423413D

 25 25  0  0  0  0  0  0  0  0999 V2000
    5.1312    1.3937    2.8693 C   0  0  0  0  0  0  0  0  0  0  0  0
    4.7946    1.7376    1.4446 C   0  0  0  0  0  0  0  0  0  0  0  0
    4.0077    2.6287    1.1468 O   0  0  0  0  0  0  0  0  0  0  0  0
    5.4695    0.9684    0.5247 N   0  0  0  0  0  0  0  0  0  0  0  0
    5.3656    1.2227   -0.9008 C   0  0  0  0  0  0  0  0  0  0  0  0
    6.2388    2.3936   -1.3654 C   0  0  0  0  0  0  0  0  0  0  0  0
    7.7145    2.1379   -1.1596 C   0  0  0  0  0  0  0  0  0  0  0  0
    8.4259    1.3158   -2.0441 C   0  0  0  0  0  0  0  0  0  0  0  0
    9.7834    1.0652   -1.8384 C   0  0  0  0  0  0  0  0  0  0  0  0
   10.4411    1.6316   -0.7479 C   0  0  0  0  0  0  0  0  0  0  0  0
    9.7428    2.4498    0.1379 C   0  0  0  0  0  0  0  0  0  0  0  0
    8.3855    2.7019   -0.0658 C   0  0  0  0  0  0  0  0  0  0  0  0
    4.4393    1.9066    3.5431 H   0  0  0  0  0  0  0  0  0  0  0  0
    6.1525    1.7140    3.0923 H   0  0  0  0  0  0  0  0  0  0  0  0
    5.0369    0.3158    3.0288 H   0  0  0  0  0  0  0  0  0  0  0  0
    6.2530    0.4107    0.8421 H   0  0  0  0  0  0  0  0  0  0  0  0
    4.3175    1.4353   -1.1397 H   0  0  0  0  0  0  0  0  0  0  0  0
    5.6461    0.2953   -1.4117 H   0  0  0  0  0  0  0  0  0  0  0  0
    5.9480    3.3148   -0.8453 H   0  0  0  0  0  0  0  0  0  0  0  0
    6.0597    2.5796   -2.4318 H   0  0  0  0  0  0  0  0  0  0  0  0
    7.9279    0.8689   -2.9015 H   0  0  0  0  0  0  0  0  0  0  0  0
   10.3294    0.4305   -2.5316 H   0  0  0  0  0  0  0  0  0  0  0  0
   11.4992    1.4388   -0.5910 H   0  0  0  0  0  0  0  0  0  0  0  0
   10.2562    2.8957    0.9858 H   0  0  0  0  0  0  0  0  0  0  0  0
    7.8527    3.3442    0.6326 H   0  0  0  0  0  0  0  0  0  0  0  0
  1  2  1  0  0  0  0
  1 13  1  0  0  0  0
  1 14  1  0  0  0  0
  1 15  1  0  0  0  0
  2  3  2  0  0  0  0
  2  4  1  0  0  0  0
  4  5  1  0  0  0  0
  4 16  1  0  0  0  0
  5  6  1  0  0  0  0
  5 17  1  0  0  0  0
  5 18  1  0  0  0  0
  6  7  1  0  0  0  0
  6 19  1  0  0  0  0
  6 20  1  0  0  0  0
  7  8  1  0  0  0  0
  7 12  2  0  0  0  0
  8  9  2  0  0  0  0
  8 21  1  0  0  0  0
  9 10  1  0  0  0  0
  9 22  1  0  0  0  0
 10 11  2  0  0  0  0
 10 23  1  0  0  0  0
 11 12  1  0  0  0  0
 11 24  1  0  0  0  0
 12 25  1  0  0  0  0
M  END
$$$$
