CHEBI:16845
 OpenBabel04242415243D

 19 19  0  0  1  0  0  0  0  0999 V2000
    3.3672   -0.2585   -1.7912 O   0  0  0  0  0  0  0  0  0  0  0  0
    2.7949   -0.3059   -0.6543 C   0  0  0  0  0  0  0  0  0  0  0  0
    1.7001   -0.9162   -0.4017 O   0  5  0  0  0  0  0  0  0  0  0  0
    3.4077    0.4840    0.5347 C   0  0  0  0  0  0  0  0  0  0  0  0
    4.5287    1.1128    0.3675 N   0  0  0  0  0  0  0  0  0  0  0  0
    5.1067    1.9419    1.4575 C   0  0  2  0  0  0  0  0  0  0  0  0
    6.3856    1.3122    2.1169 C   0  0  0  0  0  0  0  0  0  0  0  0
    6.2357    0.2416    2.7782 O   0  0  0  0  0  0  0  0  0  0  0  0
    7.4405    2.0186    2.0146 O   0  5  0  0  0  0  0  0  0  0  0  0
    4.0917    2.3484    2.5201 C   0  0  0  0  0  0  0  0  0  0  0  0
    3.2532    1.1713    2.9777 C   0  0  0  0  0  0  0  0  0  0  0  0
    2.5664    0.5266    1.7942 C   0  0  0  0  0  0  0  0  0  0  0  0
    5.4431    2.8709    0.9768 H   0  0  0  0  0  0  0  0  0  0  0  0
    3.4261    3.1171    2.1061 H   0  0  0  0  0  0  0  0  0  0  0  0
    4.5955    2.7994    3.3833 H   0  0  0  0  0  0  0  0  0  0  0  0
    2.5034    1.5043    3.7047 H   0  0  0  0  0  0  0  0  0  0  0  0
    3.8715    0.4324    3.4966 H   0  0  0  0  0  0  0  0  0  0  0  0
    1.6579    1.0918    1.5506 H   0  0  0  0  0  0  0  0  0  0  0  0
    2.2554   -0.4889    2.0624 H   0  0  0  0  0  0  0  0  0  0  0  0
  1  2  2  0  0  0  0
  2  3  1  0  0  0  0
  2  4  1  0  0  0  0
  4  5  2  0  0  0  0
  4 12  1  0  0  0  0
  5  6  1  0  0  0  0
  6  7  1  0  0  0  0
  6 10  1  0  0  0  0
  6 13  1  6  0  0  0
  7  8  2  0  0  0  0
  7  9  1  0  0  0  0
 10 11  1  0  0  0  0
 10 14  1  0  0  0  0
 10 15  1  0  0  0  0
 11 12  1  0  0  0  0
 11 16  1  0  0  0  0
 11 17  1  0  0  0  0
 12 18  1  0  0  0  0
 12 19  1  0  0  0  0
M  CHG  2   3  -1   9  -1
M  END
$$$$
