CHEBI:17975
 OpenBabel04242423213D

 98102  0  0  1  0  0  0  0  0999 V2000
  -11.2338    3.8777  -20.1113 C   0  0  0  0  0  0  0  0  0  0  0  0
  -10.9808    3.4262  -18.6808 C   0  0  2  0  0  0  0  0  0  0  0  0
  -11.9731    2.4020  -18.3051 N   0  0  0  0  0  0  0  0  0  0  0  0
  -12.1827    2.0457  -16.9626 C   0  0  0  0  0  0  0  0  0  0  0  0
  -12.8223    0.8590  -16.7079 N   0  0  0  0  0  0  0  0  0  0  0  0
  -12.9996    0.4861  -15.4820 C   0  0  0  0  0  0  0  0  0  0  0  0
  -13.6251   -0.6782  -15.1974 N   0  0  0  0  0  0  0  0  0  0  0  0
  -12.5727    1.2210  -14.4222 N   0  0  0  0  0  0  0  0  0  0  0  0
  -11.8860    2.3888  -14.5722 C   0  0  0  0  0  0  0  0  0  0  0  0
  -11.4393    3.0138  -13.6137 O   0  0  0  0  0  0  0  0  0  0  0  0
  -11.7075    2.8558  -15.9768 C   0  0  0  0  0  0  0  0  0  0  0  0
  -11.0272    4.0259  -16.3068 N   0  3  0  0  0  0  0  0  0  0  0  0
  -10.1708    4.6975  -15.5759 C   0  0  0  0  0  0  0  0  0  0  0  0
   -9.5207    5.6392  -16.2450 N   0  0  0  0  0  0  0  0  0  0  0  0
   -8.4868    6.3772  -15.7071 C   0  0  0  0  0  0  0  0  0  0  0  0
   -8.1653    6.3226  -14.3418 C   0  0  0  0  0  0  0  0  0  0  0  0
   -7.1425    7.1035  -13.7889 C   0  0  0  0  0  0  0  0  0  0  0  0
   -6.3932    7.9843  -14.5759 C   0  0  0  0  0  0  0  0  0  0  0  0
   -5.4155    8.9041  -13.8648 C   0  0  0  0  0  0  0  0  0  0  0  0
   -4.2247    9.5179  -14.6349 C   0  0  2  0  0  0  0  0  0  0  0  0
   -4.7550   10.3921  -15.6542 O   0  0  0  0  0  0  0  0  0  0  0  0
   -3.2879   10.4042  -13.7585 C   0  0  2  0  0  0  0  0  0  0  0  0
   -4.1194   11.3886  -13.1076 O   0  0  0  0  0  0  0  0  0  0  0  0
   -2.4121    9.6649  -12.7219 C   0  0  2  0  0  0  0  0  0  0  0  0
   -3.2459    8.9427  -11.8061 O   0  0  0  0  0  0  0  0  0  0  0  0
   -1.5544   10.6338  -11.8903 C   0  0  0  0  0  0  0  0  0  0  0  0
   -0.6144   11.3410  -12.6924 O   0  0  0  0  0  0  0  0  0  0  0  0
   -0.0217   12.4075  -11.9379 C   0  0  1  0  0  0  0  0  0  0  0  0
    0.6851   11.8856  -10.8035 O   0  0  0  0  0  0  0  0  0  0  0  0
    2.1094   12.0235  -11.0278 C   0  0  2  0  0  0  0  0  0  0  0  0
    2.6375   13.1069  -10.0803 C   0  0  0  0  0  0  0  0  0  0  0  0
    2.2965   12.7659   -8.7473 O   0  0  0  0  0  0  0  0  0  0  0  0
    2.7388   13.7403   -7.5576 P   0  0  0  0  0  0  0  0  0  0  0  0
    4.0345   13.4099   -6.8994 O   0  0  0  0  0  0  0  0  0  0  0  0
    2.7488   15.2024   -8.2138 O   0  0  0  0  0  0  0  0  0  0  0  0
    1.4691   13.8317   -6.5911 O   0  0  0  0  0  0  0  0  0  0  0  0
    0.7543   12.6460   -6.2503 C   0  0  1  0  0  0  0  0  0  0  0  0
    1.6063   11.7683   -5.3242 C   0  0  0  0  0  0  0  0  0  0  0  0
    0.9552   10.4820   -4.8192 C   0  0  0  0  0  0  0  0  0  0  0  0
    0.6356    9.5163   -5.9256 C   0  0  0  0  0  0  0  0  0  0  0  0
   -0.1215    9.7165   -6.8588 O   0  0  0  0  0  0  0  0  0  0  0  0
    1.2768    8.3413   -5.7967 O   0  0  0  0  0  0  0  0  0  0  0  0
   -0.5356   13.1233   -5.5942 C   0  0  0  0  0  0  0  0  0  0  0  0
   -0.8959   12.9355   -4.4431 O   0  0  0  0  0  0  0  0  0  0  0  0
   -1.3204   13.8337   -6.4345 O   0  0  0  0  0  0  0  0  0  0  0  0
    2.2875   12.4057  -12.4976 C   0  0  1  0  0  0  0  0  0  0  0  0
    2.3247   11.2447  -13.3413 O   0  0  0  0  0  0  0  0  0  0  0  0
    1.0078   13.1819  -12.7694 C   0  0  1  0  0  0  0  0  0  0  0  0
    0.7033   13.2736  -14.1529 O   0  0  0  0  0  0  0  0  0  0  0  0
   -6.6797    8.0328  -15.9376 C   0  0  0  0  0  0  0  0  0  0  0  0
   -7.6949    7.2296  -16.4908 C   0  0  0  0  0  0  0  0  0  0  0  0
   -9.9928    5.6700  -17.6668 C   0  0  2  0  0  0  0  0  0  0  0  0
  -10.6030    7.0204  -18.0324 C   0  0  0  0  0  0  0  0  0  0  0  0
  -11.1124    4.5905  -17.6749 C   0  0  1  0  0  0  0  0  0  0  0  0
  -11.1746    3.0291  -20.8016 H   0  0  0  0  0  0  0  0  0  0  0  0
  -10.4947    4.6208  -20.4261 H   0  0  0  0  0  0  0  0  0  0  0  0
  -12.2306    4.3196  -20.2192 H   0  0  0  0  0  0  0  0  0  0  0  0
   -9.9813    2.9796  -18.6087 H   0  0  0  0  0  0  0  0  0  0  0  0
  -12.0501    1.5796  -18.9049 H   0  0  0  0  0  0  0  0  0  0  0  0
  -14.0903   -1.0911  -16.0018 H   0  0  0  0  0  0  0  0  0  0  0  0
  -14.1850   -0.7306  -14.3557 H   0  0  0  0  0  0  0  0  0  0  0  0
  -12.6807    0.8669  -13.4838 H   0  0  0  0  0  0  0  0  0  0  0  0
   -9.9604    4.4332  -14.5521 H   0  0  0  0  0  0  0  0  0  0  0  0
   -8.7044    5.6985  -13.6378 H   0  0  0  0  0  0  0  0  0  0  0  0
   -6.9532    7.0368  -12.7171 H   0  0  0  0  0  0  0  0  0  0  0  0
   -5.0205    8.3183  -13.0326 H   0  0  0  0  0  0  0  0  0  0  0  0
   -6.0264    9.7129  -13.4437 H   0  0  0  0  0  0  0  0  0  0  0  0
   -3.6470    8.7370  -15.1409 H   0  0  0  0  0  0  0  0  0  0  0  0
   -4.9484   11.2376  -15.1984 H   0  0  0  0  0  0  0  0  0  0  0  0
   -2.6327   10.9692  -14.4333 H   0  0  0  0  0  0  0  0  0  0  0  0
   -4.4194   10.9794  -12.2727 H   0  0  0  0  0  0  0  0  0  0  0  0
   -1.7710    8.9478  -13.2473 H   0  0  0  0  0  0  0  0  0  0  0  0
   -2.6539    8.4697  -11.1911 H   0  0  0  0  0  0  0  0  0  0  0  0
   -1.0131   10.0570  -11.1298 H   0  0  0  0  0  0  0  0  0  0  0  0
   -2.2065   11.3309  -11.3483 H   0  0  0  0  0  0  0  0  0  0  0  0
   -0.8129   13.0839  -11.5939 H   0  0  0  0  0  0  0  0  0  0  0  0
    2.5654   11.0567  -10.7877 H   0  0  0  0  0  0  0  0  0  0  0  0
    2.1714   14.0686  -10.3130 H   0  0  0  0  0  0  0  0  0  0  0  0
    3.7247   13.2024  -10.1683 H   0  0  0  0  0  0  0  0  0  0  0  0
    3.1699   15.8410   -7.6090 H   0  0  0  0  0  0  0  0  0  0  0  0
    0.4790   12.1087   -7.1623 H   0  0  0  0  0  0  0  0  0  0  0  0
    1.9229   12.3660   -4.4595 H   0  0  0  0  0  0  0  0  0  0  0  0
    2.5308   11.4991   -5.8490 H   0  0  0  0  0  0  0  0  0  0  0  0
    0.0386   10.6628   -4.2518 H   0  0  0  0  0  0  0  0  0  0  0  0
    1.6509    9.9971   -4.1231 H   0  0  0  0  0  0  0  0  0  0  0  0
    0.9742    7.8057   -6.5586 H   0  0  0  0  0  0  0  0  0  0  0  0
   -2.0801   14.1037   -5.8776 H   0  0  0  0  0  0  0  0  0  0  0  0
    3.1907   12.9877  -12.7038 H   0  0  0  0  0  0  0  0  0  0  0  0
    3.1309   10.7450  -13.1245 H   0  0  0  0  0  0  0  0  0  0  0  0
    1.1058   14.1969  -12.3669 H   0  0  0  0  0  0  0  0  0  0  0  0
    0.7049   12.3425  -14.4574 H   0  0  0  0  0  0  0  0  0  0  0  0
   -6.1405    8.7111  -16.5965 H   0  0  0  0  0  0  0  0  0  0  0  0
   -7.8394    7.3150  -17.5621 H   0  0  0  0  0  0  0  0  0  0  0  0
   -9.1671    5.3967  -18.3327 H   0  0  0  0  0  0  0  0  0  0  0  0
  -11.3272    7.3464  -17.2782 H   0  0  0  0  0  0  0  0  0  0  0  0
  -11.1174    6.9586  -18.9979 H   0  0  0  0  0  0  0  0  0  0  0  0
   -9.8529    7.8082  -18.1230 H   0  0  0  0  0  0  0  0  0  0  0  0
  -12.1056    5.0524  -17.7685 H   0  0  0  0  0  0  0  0  0  0  0  0
  1 55  1  0  0  0  0
  1 56  1  0  0  0  0
  1 57  1  0  0  0  0
  2  3  1  0  0  0  0
  2 54  1  0  0  0  0
  2  1  1  0  0  0  0
  2 58  1  1  0  0  0
  3  4  1  0  0  0  0
  3 59  1  0  0  0  0
  4  5  1  0  0  0  0
  4 11  2  0  0  0  0
  5  6  2  0  0  0  0
  6  7  1  0  0  0  0
  6  8  1  0  0  0  0
  7 60  1  0  0  0  0
  7 61  1  0  0  0  0
  8  9  1  0  0  0  0
  8 62  1  0  0  0  0
  9 10  2  0  0  0  0
  9 11  1  0  0  0  0
 11 12  1  0  0  0  0
 12 13  2  0  0  0  0
 12 54  1  0  0  0  0
 13 14  1  0  0  0  0
 13 63  1  0  0  0  0
 14 15  1  0  0  0  0
 14 52  1  0  0  0  0
 15 16  1  0  0  0  0
 15 51  2  0  0  0  0
 16 17  2  0  0  0  0
 16 64  1  0  0  0  0
 17 18  1  0  0  0  0
 17 65  1  0  0  0  0
 18 19  1  0  0  0  0
 18 50  2  0  0  0  0
 19 66  1  0  0  0  0
 19 67  1  0  0  0  0
 20 21  1  0  0  0  0
 20 19  1  0  0  0  0
 20 68  1  1  0  0  0
 21 69  1  0  0  0  0
 22 23  1  0  0  0  0
 22 20  1  0  0  0  0
 22 70  1  1  0  0  0
 23 71  1  0  0  0  0
 24 26  1  0  0  0  0
 24 25  1  0  0  0  0
 24 22  1  0  0  0  0
 24 72  1  6  0  0  0
 25 73  1  0  0  0  0
 26 27  1  0  0  0  0
 26 74  1  0  0  0  0
 26 75  1  0  0  0  0
 28 29  1  0  0  0  0
 28 48  1  0  0  0  0
 28 27  1  0  0  0  0
 28 76  1  1  0  0  0
 29 30  1  0  0  0  0
 30 31  1  0  0  0  0
 30 46  1  0  0  0  0
 30 77  1  1  0  0  0
 31 32  1  0  0  0  0
 31 78  1  0  0  0  0
 31 79  1  0  0  0  0
 32 33  1  0  0  0  0
 33 34  2  0  0  0  0
 33 35  1  0  0  0  0
 33 36  1  0  0  0  0
 35 80  1  0  0  0  0
 36 37  1  0  0  0  0
 37 38  1  0  0  0  0
 37 43  1  0  0  0  0
 37 81  1  6  0  0  0
 38 39  1  0  0  0  0
 38 82  1  0  0  0  0
 38 83  1  0  0  0  0
 39 40  1  0  0  0  0
 39 84  1  0  0  0  0
 39 85  1  0  0  0  0
 40 41  2  0  0  0  0
 40 42  1  0  0  0  0
 42 86  1  0  0  0  0
 43 44  2  0  0  0  0
 43 45  1  0  0  0  0
 45 87  1  0  0  0  0
 46 47  1  0  0  0  0
 46 48  1  0  0  0  0
 46 88  1  6  0  0  0
 47 89  1  0  0  0  0
 48 49  1  0  0  0  0
 48 90  1  1  0  0  0
 49 91  1  0  0  0  0
 50 51  1  0  0  0  0
 50 92  1  0  0  0  0
 51 93  1  0  0  0  0
 52 54  1  0  0  0  0
 52 53  1  0  0  0  0
 52 94  1  6  0  0  0
 53 95  1  0  0  0  0
 53 96  1  0  0  0  0
 53 97  1  0  0  0  0
 54 98  1  6  0  0  0
M  CHG  1  12   1
M  END
$$$$
