CHEBI:9362
 OpenBabel04242411393D

 30 31  0  0  0  0  0  0  0  0999 V2000
    3.2544    0.5318    1.5075 C   0  0  0  0  0  0  0  0  0  0  0  0
    2.1028    0.6350    0.5031 C   0  0  0  0  0  0  0  0  0  0  0  0
    1.6170    2.0794    0.3797 C   0  0  0  0  0  0  0  0  0  0  0  0
    1.8867    2.9676    1.1759 O   0  0  0  0  0  0  0  0  0  0  0  0
    0.7787    2.3017   -0.6613 O   0  0  0  0  0  0  0  0  0  0  0  0
    2.4944    0.0108   -0.8297 C   0  0  0  0  0  0  0  0  0  0  0  0
    1.8006   -1.1101   -1.3118 C   0  0  0  0  0  0  0  0  0  0  0  0
    2.1304   -1.6765   -2.5477 C   0  0  0  0  0  0  0  0  0  0  0  0
    3.1775   -1.1451   -3.3100 C   0  0  0  0  0  0  0  0  0  0  0  0
    3.5438   -1.6919   -4.6507 C   0  0  0  0  0  0  0  0  0  0  0  0
    3.9326   -0.8756   -5.4864 O   0  0  0  0  0  0  0  0  0  0  0  0
    3.4318   -3.1224   -4.9086 C   0  0  0  0  0  0  0  0  0  0  0  0
    3.5140   -4.2003   -4.0438 C   0  0  0  0  0  0  0  0  0  0  0  0
    3.3423   -5.4512   -4.7082 C   0  0  0  0  0  0  0  0  0  0  0  0
    3.1583   -5.2936   -6.0624 C   0  0  0  0  0  0  0  0  0  0  0  0
    3.1968   -3.6504   -6.5264 S   0  0  0  0  0  0  0  0  0  0  0  0
    3.8642   -0.0194   -2.8380 C   0  0  0  0  0  0  0  0  0  0  0  0
    3.5283    0.5520   -1.6081 C   0  0  0  0  0  0  0  0  0  0  0  0
    2.9376    0.8787    2.4974 H   0  0  0  0  0  0  0  0  0  0  0  0
    4.1119    1.1456    1.2090 H   0  0  0  0  0  0  0  0  0  0  0  0
    3.5990   -0.5031    1.6097 H   0  0  0  0  0  0  0  0  0  0  0  0
    1.2544    0.0781    0.9232 H   0  0  0  0  0  0  0  0  0  0  0  0
    0.6470    1.5296   -1.2446 H   0  0  0  0  0  0  0  0  0  0  0  0
    0.9898   -1.5517   -0.7336 H   0  0  0  0  0  0  0  0  0  0  0  0
    1.5457   -2.5198   -2.9082 H   0  0  0  0  0  0  0  0  0  0  0  0
    3.6973   -4.1099   -2.9797 H   0  0  0  0  0  0  0  0  0  0  0  0
    3.3644   -6.4180   -4.2197 H   0  0  0  0  0  0  0  0  0  0  0  0
    3.0133   -6.0641   -6.8075 H   0  0  0  0  0  0  0  0  0  0  0  0
    4.6622    0.4240   -3.4328 H   0  0  0  0  0  0  0  0  0  0  0  0
    4.0790    1.4303   -1.2719 H   0  0  0  0  0  0  0  0  0  0  0  0
  1  2  1  0  0  0  0
  1 19  1  0  0  0  0
  1 20  1  0  0  0  0
  1 21  1  0  0  0  0
  2  3  1  0  0  0  0
  2  6  1  0  0  0  0
  2 22  1  0  0  0  0
  3  4  2  0  0  0  0
  3  5  1  0  0  0  0
  5 23  1  0  0  0  0
  6  7  1  0  0  0  0
  6 18  2  0  0  0  0
  7  8  2  0  0  0  0
  7 24  1  0  0  0  0
  8  9  1  0  0  0  0
  8 25  1  0  0  0  0
  9 10  1  0  0  0  0
  9 17  2  0  0  0  0
 10 11  2  0  0  0  0
 10 12  1  0  0  0  0
 12 13  2  0  0  0  0
 12 16  1  0  0  0  0
 13 14  1  0  0  0  0
 13 26  1  0  0  0  0
 14 15  2  0  0  0  0
 14 27  1  0  0  0  0
 15 16  1  0  0  0  0
 15 28  1  0  0  0  0
 17 18  1  0  0  0  0
 17 29  1  0  0  0  0
 18 30  1  0  0  0  0
M  END
$$$$
