CHEBI:17295
 OpenBabel04242416133D

 23 23  0  0  1  0  0  0  0  0999 V2000
    1.3012    0.4407    0.2714 N   0  0  0  0  0  0  0  0  0  0  0  0
    2.7641    0.3132    0.5837 C   0  0  1  0  0  0  0  0  0  0  0  0
    3.1349   -1.0508    1.1872 C   0  0  0  0  0  0  0  0  0  0  0  0
    2.4237   -1.3346    2.4903 C   0  0  0  0  0  0  0  0  0  0  0  0
    1.4344   -2.3249    2.5615 C   0  0  0  0  0  0  0  0  0  0  0  0
    0.7635   -2.5683    3.7611 C   0  0  0  0  0  0  0  0  0  0  0  0
    1.0756   -1.8275    4.8992 C   0  0  0  0  0  0  0  0  0  0  0  0
    2.0632   -0.8465    4.8415 C   0  0  0  0  0  0  0  0  0  0  0  0
    2.7366   -0.6020    3.6440 C   0  0  0  0  0  0  0  0  0  0  0  0
    3.5513    0.5444   -0.7153 C   0  0  0  0  0  0  0  0  0  0  0  0
    4.7311    0.2857   -0.8875 O   0  0  0  0  0  0  0  0  0  0  0  0
    2.7633    1.1138   -1.6665 O   0  0  0  0  0  0  0  0  0  0  0  0
    0.8160    0.5182    1.1739 H   0  0  0  0  0  0  0  0  0  0  0  0
    0.9773   -0.4658   -0.0845 H   0  0  0  0  0  0  0  0  0  0  0  0
    3.0297    1.1343    1.2597 H   0  0  0  0  0  0  0  0  0  0  0  0
    4.2168   -1.1019    1.3686 H   0  0  0  0  0  0  0  0  0  0  0  0
    2.9252   -1.8498    0.4630 H   0  0  0  0  0  0  0  0  0  0  0  0
    1.1805   -2.9190    1.6865 H   0  0  0  0  0  0  0  0  0  0  0  0
   -0.0005   -3.3403    3.8098 H   0  0  0  0  0  0  0  0  0  0  0  0
    0.5543   -2.0197    5.8335 H   0  0  0  0  0  0  0  0  0  0  0  0
    2.3127   -0.2743    5.7316 H   0  0  0  0  0  0  0  0  0  0  0  0
    3.5111    0.1619    3.6209 H   0  0  0  0  0  0  0  0  0  0  0  0
    1.8680    1.2046   -1.2501 H   0  0  0  0  0  0  0  0  0  0  0  0
  1  2  1  0  0  0  0
  1 13  1  0  0  0  0
  1 14  1  0  0  0  0
  2  3  1  0  0  0  0
  2 10  1  0  0  0  0
  2 15  1  1  0  0  0
  3  4  1  0  0  0  0
  3 16  1  0  0  0  0
  3 17  1  0  0  0  0
  4  5  1  0  0  0  0
  4  9  2  0  0  0  0
  5  6  2  0  0  0  0
  5 18  1  0  0  0  0
  6  7  1  0  0  0  0
  6 19  1  0  0  0  0
  7  8  2  0  0  0  0
  7 20  1  0  0  0  0
  8  9  1  0  0  0  0
  8 21  1  0  0  0  0
  9 22  1  0  0  0  0
 10 11  2  0  0  0  0
 10 12  1  0  0  0  0
 12 23  1  0  0  0  0
M  END
$$$$
