CHEBI:15900
 OpenBabel04242413263D

 13 13  0  0  1  0  0  0  0  0999 V2000
    2.1458   -1.7617   -0.2782 O   0  0  0  0  0  0  0  0  0  0  0  0
    2.3459   -0.5951    0.0088 C   0  0  0  0  0  0  0  0  0  0  0  0
    2.0320    0.4498   -0.7911 O   0  0  0  0  0  0  0  0  0  0  0  0
    2.9564   -0.1981    1.2900 C   0  0  2  0  0  0  0  0  0  0  0  0
    3.5700    1.1088    1.2999 O   0  0  0  0  0  0  0  0  0  0  0  0
    4.4470   -0.0358    1.3825 C   0  0  1  0  0  0  0  0  0  0  0  0
    5.1191   -0.2196    2.6815 C   0  0  0  0  0  0  0  0  0  0  0  0
    5.5987   -1.2878    3.0163 O   0  0  0  0  0  0  0  0  0  0  0  0
    5.1492    0.8992    3.4417 O   0  0  0  0  0  0  0  0  0  0  0  0
    2.2912    1.3001   -0.3813 H   0  0  0  0  0  0  0  0  0  0  0  0
    2.4222   -0.5191    2.1763 H   0  0  0  0  0  0  0  0  0  0  0  0
    5.0428   -0.2879    0.5132 H   0  0  0  0  0  0  0  0  0  0  0  0
    4.6980    1.6433    2.9934 H   0  0  0  0  0  0  0  0  0  0  0  0
  1  2  2  0  0  0  0
  2  3  1  0  0  0  0
  2  4  1  0  0  0  0
  3 10  1  0  0  0  0
  4  5  1  0  0  0  0
  4  6  1  0  0  0  0
  4 11  1  1  0  0  0
  5  6  1  0  0  0  0
  6  7  1  0  0  0  0
  6 12  1  6  0  0  0
  7  8  2  0  0  0  0
  7  9  1  0  0  0  0
  9 13  1  0  0  0  0
M  END
$$$$
