CHEBI:17409
 OpenBabel04242416303D

 33 32  0  0  0  0  0  0  0  0999 V2000
    3.4187    0.4030   -0.9760 O   0  0  0  0  0  0  0  0  0  0  0  0
    4.1791   -0.4216   -0.4961 C   0  0  0  0  0  0  0  0  0  0  0  0
    4.2080   -1.7090   -0.9149 O   0  0  0  0  0  0  0  0  0  0  0  0
    5.1822   -0.1581    0.6038 C   0  0  0  0  0  0  0  0  0  0  0  0
    5.1514    1.2973    1.0708 C   0  0  0  0  0  0  0  0  0  0  0  0
    6.0662    1.5688    2.2682 C   0  0  0  0  0  0  0  0  0  0  0  0
    7.5518    1.3820    1.9522 C   0  0  0  0  0  0  0  0  0  0  0  0
    8.4224    1.7158    3.1653 C   0  0  0  0  0  0  0  0  0  0  0  0
    9.9053    1.4914    2.8641 C   0  0  0  0  0  0  0  0  0  0  0  0
   10.7702    1.7880    4.0898 C   0  0  0  0  0  0  0  0  0  0  0  0
   12.2508    1.5571    3.7966 C   0  0  0  0  0  0  0  0  0  0  0  0
   13.1132    1.8335    5.0201 C   0  0  0  0  0  0  0  0  0  0  0  0
   14.4744    1.6051    4.6838 O   0  0  0  0  0  0  0  0  0  0  0  0
    4.8657   -2.2588   -0.4488 H   0  0  0  0  0  0  0  0  0  0  0  0
    6.1737   -0.4083    0.2134 H   0  0  0  0  0  0  0  0  0  0  0  0
    4.9470   -0.8203    1.4443 H   0  0  0  0  0  0  0  0  0  0  0  0
    4.1255    1.5638    1.3556 H   0  0  0  0  0  0  0  0  0  0  0  0
    5.4220    1.9604    0.2397 H   0  0  0  0  0  0  0  0  0  0  0  0
    5.7796    0.9164    3.1020 H   0  0  0  0  0  0  0  0  0  0  0  0
    5.8982    2.6001    2.6025 H   0  0  0  0  0  0  0  0  0  0  0  0
    7.8327    2.0244    1.1090 H   0  0  0  0  0  0  0  0  0  0  0  0
    7.7452    0.3466    1.6514 H   0  0  0  0  0  0  0  0  0  0  0  0
    8.1223    1.0893    4.0141 H   0  0  0  0  0  0  0  0  0  0  0  0
    8.2603    2.7597    3.4599 H   0  0  0  0  0  0  0  0  0  0  0  0
   10.2129    2.1340    2.0302 H   0  0  0  0  0  0  0  0  0  0  0  0
   10.0631    0.4531    2.5475 H   0  0  0  0  0  0  0  0  0  0  0  0
   10.4574    1.1466    4.9227 H   0  0  0  0  0  0  0  0  0  0  0  0
   10.6158    2.8268    4.4059 H   0  0  0  0  0  0  0  0  0  0  0  0
   12.5785    2.1973    2.9679 H   0  0  0  0  0  0  0  0  0  0  0  0
   12.4161    0.5254    3.4617 H   0  0  0  0  0  0  0  0  0  0  0  0
   12.8427    1.1684    5.8465 H   0  0  0  0  0  0  0  0  0  0  0  0
   13.0044    2.8721    5.3482 H   0  0  0  0  0  0  0  0  0  0  0  0
   15.0007    1.7987    5.4783 H   0  0  0  0  0  0  0  0  0  0  0  0
  1  2  2  0  0  0  0
  2  3  1  0  0  0  0
  2  4  1  0  0  0  0
  3 14  1  0  0  0  0
  4  5  1  0  0  0  0
  4 15  1  0  0  0  0
  4 16  1  0  0  0  0
  5  6  1  0  0  0  0
  5 17  1  0  0  0  0
  5 18  1  0  0  0  0
  6  7  1  0  0  0  0
  6 19  1  0  0  0  0
  6 20  1  0  0  0  0
  7  8  1  0  0  0  0
  7 21  1  0  0  0  0
  7 22  1  0  0  0  0
  8  9  1  0  0  0  0
  8 23  1  0  0  0  0
  8 24  1  0  0  0  0
  9 10  1  0  0  0  0
  9 25  1  0  0  0  0
  9 26  1  0  0  0  0
 10 11  1  0  0  0  0
 10 27  1  0  0  0  0
 10 28  1  0  0  0  0
 11 12  1  0  0  0  0
 11 29  1  0  0  0  0
 11 30  1  0  0  0  0
 12 13  1  0  0  0  0
 12 31  1  0  0  0  0
 12 32  1  0  0  0  0
 13 33  1  0  0  0  0
M  END
$$$$
