CHEBI:17137
 OpenBabel04242415553D

  5  4  0  0  0  0  0  0  0  0999 V2000
    1.1026    0.0459    0.2895 O   0  0  0  0  0  0  0  0  0  0  0  0
    2.5774    0.0275   -0.0199 S   0  0  0  0  0  0  0  0  0  0  0  0
    3.0065    0.9121   -1.1601 O   0  5  0  0  0  0  0  0  0  0  0  0
    3.2439    0.6867    1.3234 O   0  0  0  0  0  0  0  0  0  0  0  0
    2.4629    0.8333    1.9003 H   0  0  0  0  0  0  0  0  0  0  0  0
  1  2  2  0  0  0  0
  2  3  1  0  0  0  0
  2  4  1  0  0  0  0
  4  5  1  0  0  0  0
M  CHG  1   3  -1
M  END
$$$$
