CHEBI:21412
 OpenBabel04252409383D

 25 25  0  0  1  0  0  0  0  0999 V2000
    3.3677    5.9937    0.8092 N   0  0  0  0  0  0  0  0  0  0  0  0
    2.9549    4.7108    0.5991 C   0  0  0  0  0  0  0  0  0  0  0  0
    1.9802    4.4776   -0.1125 O   0  0  0  0  0  0  0  0  0  0  0  0
    3.7594    3.6088    1.3215 C   0  0  1  0  0  0  0  0  0  0  0  0
    2.8839    2.4259    1.5090 N   0  0  0  0  0  0  0  0  0  0  0  0
    5.0049    3.2162    0.5088 C   0  0  0  0  0  0  0  0  0  0  0  0
    6.0975    4.2619    0.5400 C   0  0  0  0  0  0  0  0  0  0  0  0
    6.8701    4.4459    1.6967 C   0  0  0  0  0  0  0  0  0  0  0  0
    7.8602    5.4297    1.7396 C   0  0  0  0  0  0  0  0  0  0  0  0
    8.0769    6.2303    0.6235 C   0  0  0  0  0  0  0  0  0  0  0  0
    9.0298    7.2049    0.6222 O   0  0  0  0  0  0  0  0  0  0  0  0
    7.3243    6.0601   -0.5319 C   0  0  0  0  0  0  0  0  0  0  0  0
    6.3375    5.0747   -0.5768 C   0  0  0  0  0  0  0  0  0  0  0  0
    2.9007    6.7166    0.2771 H   0  0  0  0  0  0  0  0  0  0  0  0
    4.2905    6.2027    1.1708 H   0  0  0  0  0  0  0  0  0  0  0  0
    4.0366    3.9745    2.3170 H   0  0  0  0  0  0  0  0  0  0  0  0
    2.5034    2.1845    0.5879 H   0  0  0  0  0  0  0  0  0  0  0  0
    2.0575    2.7297    2.0287 H   0  0  0  0  0  0  0  0  0  0  0  0
    4.7278    3.0042   -0.5326 H   0  0  0  0  0  0  0  0  0  0  0  0
    5.4313    2.2826    0.9009 H   0  0  0  0  0  0  0  0  0  0  0  0
    6.7071    3.8174    2.5705 H   0  0  0  0  0  0  0  0  0  0  0  0
    8.4478    5.5530    2.6440 H   0  0  0  0  0  0  0  0  0  0  0  0
    9.5133    7.1688    1.4638 H   0  0  0  0  0  0  0  0  0  0  0  0
    7.5092    6.6894   -1.3982 H   0  0  0  0  0  0  0  0  0  0  0  0
    5.7562    4.9498   -1.4884 H   0  0  0  0  0  0  0  0  0  0  0  0
  1  2  1  0  0  0  0
  1 14  1  0  0  0  0
  1 15  1  0  0  0  0
  2  3  2  0  0  0  0
  2  4  1  0  0  0  0
  4  5  1  0  0  0  0
  4  6  1  0  0  0  0
  4 16  1  1  0  0  0
  5 17  1  0  0  0  0
  5 18  1  0  0  0  0
  6  7  1  0  0  0  0
  6 19  1  0  0  0  0
  6 20  1  0  0  0  0
  7  8  1  0  0  0  0
  7 13  2  0  0  0  0
  8  9  2  0  0  0  0
  8 21  1  0  0  0  0
  9 10  1  0  0  0  0
  9 22  1  0  0  0  0
 10 11  1  0  0  0  0
 10 12  2  0  0  0  0
 11 23  1  0  0  0  0
 12 13  1  0  0  0  0
 12 24  1  0  0  0  0
 13 25  1  0  0  0  0
M  END
$$$$
