CHEBI:15781
 OpenBabel04242413153D

 29 29  0  0  1  0  0  0  0  0999 V2000
    2.8566    0.5995    3.9409 C   0  0  0  0  0  0  0  0  0  0  0  0
    2.4854    1.6299    2.8929 N   0  3  0  0  0  0  0  0  0  0  0  0
    1.0934    2.1795    3.2211 C   0  0  0  0  0  0  0  0  0  0  0  0
    3.4710    2.7676    2.8421 C   0  0  0  0  0  0  0  0  0  0  0  0
    2.3537    0.9113    1.4339 C   0  0  1  0  0  0  0  0  0  0  0  0
    3.6694    0.2387    1.0083 C   0  0  0  0  0  0  0  0  0  0  0  0
    3.7573    0.1190   -0.4739 C   0  0  0  0  0  0  0  0  0  0  0  0
    3.3301   -0.9052   -1.2891 C   0  0  0  0  0  0  0  0  0  0  0  0
    3.6077   -0.4921   -2.5603 N   0  0  0  0  0  0  0  0  0  0  0  0
    4.1923    0.7397   -2.4726 C   0  0  0  0  0  0  0  0  0  0  0  0
    4.2985    1.1374   -1.2246 N   0  0  0  0  0  0  0  0  0  0  0  0
    1.1845   -0.1345    1.3366 C   0  0  0  0  0  0  0  0  0  0  0  0
    1.4483   -1.2864    1.7817 O   0  0  0  0  0  0  0  0  0  0  0  0
    0.0754    0.3708    0.9999 O   0  5  0  0  0  0  0  0  0  0  0  0
    2.9162    1.1102    4.9073 H   0  0  0  0  0  0  0  0  0  0  0  0
    3.8316    0.1738    3.6925 H   0  0  0  0  0  0  0  0  0  0  0  0
    2.0887   -0.1754    3.9839 H   0  0  0  0  0  0  0  0  0  0  0  0
    1.1703    2.7608    4.1455 H   0  0  0  0  0  0  0  0  0  0  0  0
    0.4001    1.3496    3.3782 H   0  0  0  0  0  0  0  0  0  0  0  0
    0.7704    2.8243    2.3989 H   0  0  0  0  0  0  0  0  0  0  0  0
    3.4057    3.3239    3.7825 H   0  0  0  0  0  0  0  0  0  0  0  0
    3.2159    3.4182    2.0011 H   0  0  0  0  0  0  0  0  0  0  0  0
    4.4823    2.3703    2.7345 H   0  0  0  0  0  0  0  0  0  0  0  0
    2.1231    1.7457    0.7571 H   0  0  0  0  0  0  0  0  0  0  0  0
    3.7984   -0.7510    1.4612 H   0  0  0  0  0  0  0  0  0  0  0  0
    4.5372    0.8231    1.3277 H   0  0  0  0  0  0  0  0  0  0  0  0
    2.8430   -1.8481   -1.0746 H   0  0  0  0  0  0  0  0  0  0  0  0
    3.4049   -0.9967   -3.4122 H   0  0  0  0  0  0  0  0  0  0  0  0
    4.5105    1.2932   -3.3458 H   0  0  0  0  0  0  0  0  0  0  0  0
  1  2  1  0  0  0  0
  1 15  1  0  0  0  0
  1 16  1  0  0  0  0
  1 17  1  0  0  0  0
  2  3  1  0  0  0  0
  2  4  1  0  0  0  0
  2  5  1  0  0  0  0
  3 18  1  0  0  0  0
  3 19  1  0  0  0  0
  3 20  1  0  0  0  0
  4 21  1  0  0  0  0
  4 22  1  0  0  0  0
  4 23  1  0  0  0  0
  5  6  1  0  0  0  0
  5 12  1  0  0  0  0
  5 24  1  6  0  0  0
  6  7  1  0  0  0  0
  6 25  1  0  0  0  0
  6 26  1  0  0  0  0
  7  8  2  0  0  0  0
  7 11  1  0  0  0  0
  8  9  1  0  0  0  0
  8 27  1  0  0  0  0
  9 10  1  0  0  0  0
  9 28  1  0  0  0  0
 10 11  2  0  0  0  0
 10 29  1  0  0  0  0
 12 13  2  0  0  0  0
 12 14  1  0  0  0  0
M  CHG  2   2   1  14  -1
M  END
$$$$
