CHEBI:16557
 OpenBabel04242414453D

 44 46  0  0  0  0  0  0  0  0999 V2000
   -1.5334    1.4737    2.2045 O   0  0  0  0  0  0  0  0  0  0  0  0
   -1.3951    0.4352    1.5676 C   0  0  0  0  0  0  0  0  0  0  0  0
   -2.5250   -0.5404    1.4422 C   0  0  0  0  0  0  0  0  0  0  0  0
   -3.7235   -0.3617    2.1197 O   0  0  0  0  0  0  0  0  0  0  0  0
   -4.0728    0.7224    3.2805 S   0  0  0  0  0  0  0  0  0  0  0  0
   -5.4982    0.6372    3.5172 O   0  0  0  0  0  0  0  0  0  0  0  0
   -3.1334    0.5611    4.3689 O   0  0  0  0  0  0  0  0  0  0  0  0
   -3.8024    2.1613    2.6010 O   0  0  0  0  0  0  0  0  0  0  0  0
   -2.3668   -1.5802    0.5932 C   0  0  0  0  0  0  0  0  0  0  0  0
   -3.4029   -2.6153    0.2841 C   0  0  0  0  0  0  0  0  0  0  0  0
   -2.9888   -3.8912   -0.1499 C   0  0  0  0  0  0  0  0  0  0  0  0
   -3.9063   -4.8693   -0.5504 C   0  0  0  0  0  0  0  0  0  0  0  0
   -5.2679   -4.5982   -0.4981 C   0  0  0  0  0  0  0  0  0  0  0  0
   -6.1663   -5.5324   -0.9406 O   0  0  0  0  0  0  0  0  0  0  0  0
   -5.7115   -3.3636   -0.0279 C   0  0  0  0  0  0  0  0  0  0  0  0
   -7.0336   -3.0106    0.0619 O   0  0  0  0  0  0  0  0  0  0  0  0
   -8.1151   -3.9832    0.8064 S   0  0  0  0  0  0  0  0  0  0  0  0
   -7.4370   -4.8474    1.7531 O   0  0  0  0  0  0  0  0  0  0  0  0
   -9.2379   -3.1716    1.2185 O   0  0  0  0  0  0  0  0  0  0  0  0
   -8.6302   -4.9276   -0.3976 O   0  0  0  0  0  0  0  0  0  0  0  0
   -4.7850   -2.3696    0.3183 C   0  0  0  0  0  0  0  0  0  0  0  0
   -1.2011   -1.8181   -0.1195 O   0  0  0  0  0  0  0  0  0  0  0  0
   -0.1323   -0.9803    0.0160 C   0  0  0  0  0  0  0  0  0  0  0  0
    0.9902   -1.3010   -0.7554 C   0  0  0  0  0  0  0  0  0  0  0  0
    2.1187   -0.4894   -0.7113 C   0  0  0  0  0  0  0  0  0  0  0  0
    3.2223   -0.6766   -1.5015 O   0  0  0  0  0  0  0  0  0  0  0  0
    3.9336   -2.1357   -1.6689 S   0  0  0  0  0  0  0  0  0  0  0  0
    2.9987   -3.0929   -2.2188 O   0  0  0  0  0  0  0  0  0  0  0  0
    5.2301   -1.9453   -2.2811 O   0  0  0  0  0  0  0  0  0  0  0  0
    4.2387   -2.6064   -0.1564 O   0  0  0  0  0  0  0  0  0  0  0  0
    2.1125    0.6543    0.0891 C   0  0  0  0  0  0  0  0  0  0  0  0
    0.9870    0.9663    0.8602 C   0  0  0  0  0  0  0  0  0  0  0  0
    1.0102    2.0955    1.6275 O   0  0  0  0  0  0  0  0  0  0  0  0
   -0.1480    0.1442    0.8288 C   0  0  0  0  0  0  0  0  0  0  0  0
   -2.8164    2.2677    2.5531 H   0  0  0  0  0  0  0  0  0  0  0  0
   -1.9295   -4.1403   -0.2057 H   0  0  0  0  0  0  0  0  0  0  0  0
   -3.5301   -5.8228   -0.9105 H   0  0  0  0  0  0  0  0  0  0  0  0
   -5.6644   -6.3415   -1.1626 H   0  0  0  0  0  0  0  0  0  0  0  0
   -7.8235   -5.3207   -0.8025 H   0  0  0  0  0  0  0  0  0  0  0  0
   -5.1808   -1.3978    0.6014 H   0  0  0  0  0  0  0  0  0  0  0  0
    0.9362   -2.1674   -1.4088 H   0  0  0  0  0  0  0  0  0  0  0  0
    4.8833   -3.3424   -0.2040 H   0  0  0  0  0  0  0  0  0  0  0  0
    2.9863    1.3012    0.0950 H   0  0  0  0  0  0  0  0  0  0  0  0
    1.8503    2.5708    1.5186 H   0  0  0  0  0  0  0  0  0  0  0  0
  1  2  2  0  0  0  0
  2  3  1  0  0  0  0
  2 34  1  0  0  0  0
  3  4  1  0  0  0  0
  3  9  2  0  0  0  0
  4  5  1  0  0  0  0
  5  6  2  0  0  0  0
  5  7  2  0  0  0  0
  5  8  1  0  0  0  0
  8 35  1  0  0  0  0
  9 10  1  0  0  0  0
  9 22  1  0  0  0  0
 10 11  1  0  0  0  0
 10 21  2  0  0  0  0
 11 12  2  0  0  0  0
 11 36  1  0  0  0  0
 12 13  1  0  0  0  0
 12 37  1  0  0  0  0
 13 14  1  0  0  0  0
 13 15  2  0  0  0  0
 14 38  1  0  0  0  0
 15 16  1  0  0  0  0
 15 21  1  0  0  0  0
 16 17  1  0  0  0  0
 17 18  2  0  0  0  0
 17 19  2  0  0  0  0
 17 20  1  0  0  0  0
 20 39  1  0  0  0  0
 21 40  1  0  0  0  0
 22 23  1  0  0  0  0
 23 24  1  0  0  0  0
 23 34  2  0  0  0  0
 24 25  2  0  0  0  0
 24 41  1  0  0  0  0
 25 26  1  0  0  0  0
 25 31  1  0  0  0  0
 26 27  1  0  0  0  0
 27 28  2  0  0  0  0
 27 29  2  0  0  0  0
 27 30  1  0  0  0  0
 30 42  1  0  0  0  0
 31 32  2  0  0  0  0
 31 43  1  0  0  0  0
 32 33  1  0  0  0  0
 32 34  1  0  0  0  0
 33 44  1  0  0  0  0
M  END
$$$$
