CHEBI:18090
 OpenBabel04242423313D

 12 11  0  0  0  0  0  0  0  0999 V2000
    1.0117   -0.6028    0.7665 N   0  0  0  0  0  0  0  0  0  0  0  0
    2.2049   -0.2656   -0.0090 C   0  0  0  0  0  0  0  0  0  0  0  0
    1.8140    0.3602   -1.3398 C   0  0  0  0  0  0  0  0  0  0  0  0
    3.0228    0.7225   -2.1634 C   0  0  0  0  0  0  0  0  0  0  0  0
    4.1793    0.4404   -1.8672 O   0  0  0  0  0  0  0  0  0  0  0  0
    1.3013   -0.9838    1.6680 H   0  0  0  0  0  0  0  0  0  0  0  0
    0.5009   -1.3528    0.3012 H   0  0  0  0  0  0  0  0  0  0  0  0
    2.8032   -1.1702   -0.1662 H   0  0  0  0  0  0  0  0  0  0  0  0
    2.8194    0.4339    0.5690 H   0  0  0  0  0  0  0  0  0  0  0  0
    1.2383    1.2786   -1.1787 H   0  0  0  0  0  0  0  0  0  0  0  0
    1.2023   -0.3276   -1.9341 H   0  0  0  0  0  0  0  0  0  0  0  0
    2.8023    1.2586   -3.1026 H   0  0  0  0  0  0  0  0  0  0  0  0
  1  2  1  0  0  0  0
  1  6  1  0  0  0  0
  1  7  1  0  0  0  0
  2  3  1  0  0  0  0
  2  8  1  0  0  0  0
  2  9  1  0  0  0  0
  3  4  1  0  0  0  0
  3 10  1  0  0  0  0
  3 11  1  0  0  0  0
  4  5  2  0  0  0  0
  4 12  1  0  0  0  0
M  END
$$$$
