CHEBI:18025
 OpenBabel04242423263D

 18 17  0  0  0  0  0  0  0  0999 V2000
    0.8738    0.6880   -1.2898 C   0  0  0  0  0  0  0  0  0  0  0  0
    1.1284    0.2535    0.1469 C   0  0  0  0  0  0  0  0  0  0  0  0
    0.1426   -0.7317    0.4917 O   0  0  0  0  0  0  0  0  0  0  0  0
    2.5435   -0.3114    0.3424 C   0  0  0  0  0  0  0  0  0  0  0  0
    2.7935   -1.4481   -0.4736 O   0  0  0  0  0  0  0  0  0  0  0  0
    2.0487   -2.8146   -0.0913 P   0  0  0  0  0  0  0  0  0  0  0  0
    1.8199   -3.0746    1.3586 O   0  0  0  0  0  0  0  0  0  0  0  0
    0.7181   -2.7786   -0.9725 O   0  0  0  0  0  0  0  0  0  0  0  0
    2.8991   -3.9362   -0.8415 O   0  0  0  0  0  0  0  0  0  0  0  0
   -0.1417    1.0865   -1.3906 H   0  0  0  0  0  0  0  0  0  0  0  0
    0.9476   -0.1544   -1.9851 H   0  0  0  0  0  0  0  0  0  0  0  0
    1.5828    1.4613   -1.6005 H   0  0  0  0  0  0  0  0  0  0  0  0
    0.9834    1.1124    0.8115 H   0  0  0  0  0  0  0  0  0  0  0  0
    0.2341   -0.9005    1.4530 H   0  0  0  0  0  0  0  0  0  0  0  0
    2.7015   -0.5904    1.3898 H   0  0  0  0  0  0  0  0  0  0  0  0
    3.2888    0.4492    0.0882 H   0  0  0  0  0  0  0  0  0  0  0  0
    0.1194   -2.0897   -0.6011 H   0  0  0  0  0  0  0  0  0  0  0  0
    2.5407   -4.8212   -0.6576 H   0  0  0  0  0  0  0  0  0  0  0  0
  1  2  1  0  0  0  0
  1 10  1  0  0  0  0
  1 11  1  0  0  0  0
  1 12  1  0  0  0  0
  2  3  1  0  0  0  0
  2  4  1  0  0  0  0
  2 13  1  0  0  0  0
  3 14  1  0  0  0  0
  4  5  1  0  0  0  0
  4 15  1  0  0  0  0
  4 16  1  0  0  0  0
  5  6  1  0  0  0  0
  6  7  2  0  0  0  0
  6  8  1  0  0  0  0
  6  9  1  0  0  0  0
  8 17  1  0  0  0  0
  9 18  1  0  0  0  0
M  END
$$$$
