CHEBI:15825
 OpenBabel04242413193D

 14 13  0  0  0  0  0  0  0  0999 V2000
    1.0779    0.0739    0.1019 C   0  0  0  0  0  0  0  0  0  0  0  0
    2.5827    0.0670    0.0747 C   0  0  0  0  0  0  0  0  0  0  0  0
    3.2222    0.4597   -1.2281 C   0  0  0  0  0  0  0  0  0  0  0  0
    3.2707   -0.2789    1.1782 C   0  0  0  0  0  0  0  0  0  0  0  0
    4.7472   -0.3240    1.2626 C   0  0  0  0  0  0  0  0  0  0  0  0
    5.3124   -0.6772    2.2883 O   0  0  0  0  0  0  0  0  0  0  0  0
    0.6751    0.8658   -0.5381 H   0  0  0  0  0  0  0  0  0  0  0  0
    0.6928    0.2531    1.1116 H   0  0  0  0  0  0  0  0  0  0  0  0
    0.6910   -0.8869   -0.2524 H   0  0  0  0  0  0  0  0  0  0  0  0
    2.4726    0.6371   -2.0064 H   0  0  0  0  0  0  0  0  0  0  0  0
    3.8850   -0.3308   -1.5938 H   0  0  0  0  0  0  0  0  0  0  0  0
    3.7948    1.3857   -1.1095 H   0  0  0  0  0  0  0  0  0  0  0  0
    2.7660   -0.5652    2.0964 H   0  0  0  0  0  0  0  0  0  0  0  0
    5.3062   -0.0267    0.3613 H   0  0  0  0  0  0  0  0  0  0  0  0
  1  2  1  0  0  0  0
  1  7  1  0  0  0  0
  1  8  1  0  0  0  0
  1  9  1  0  0  0  0
  2  3  1  0  0  0  0
  2  4  2  0  0  0  0
  3 10  1  0  0  0  0
  3 11  1  0  0  0  0
  3 12  1  0  0  0  0
  4  5  1  0  0  0  0
  4 13  1  0  0  0  0
  5  6  2  0  0  0  0
  5 14  1  0  0  0  0
M  END
$$$$
