CHEBI:18297
 OpenBabel04252409203D

 29 29  0  0  1  0  0  0  0  0999 V2000
    2.1968   -0.8953    1.9106 O   0  0  0  0  0  0  0  0  0  0  0  0
    2.4760   -1.1300    0.4713 P   0  0  0  0  0  0  0  0  0  0  0  0
    2.1874   -2.6292   -0.0158 O   0  0  0  0  0  0  0  0  0  0  0  0
    1.5786   -0.2999   -0.5480 O   0  0  0  0  0  0  0  0  0  0  0  0
    3.9604   -0.8619   -0.0488 O   0  0  0  0  0  0  0  0  0  0  0  0
    5.0593   -1.2706    0.7658 C   0  0  2  0  0  0  0  0  0  0  0  0
    6.3660   -0.6815    0.1946 C   0  0  2  0  0  0  0  0  0  0  0  0
    6.2068    0.7349    0.0202 O   0  0  0  0  0  0  0  0  0  0  0  0
    6.7811   -1.3183   -1.1476 C   0  0  2  0  0  0  0  0  0  0  0  0
    5.8792   -0.8685   -2.1742 O   0  0  0  0  0  0  0  0  0  0  0  0
    6.8331   -2.8579   -1.0646 C   0  0  1  0  0  0  0  0  0  0  0  0
    7.9482   -3.2734   -0.2698 O   0  0  0  0  0  0  0  0  0  0  0  0
    5.5074   -3.4321   -0.5158 C   0  0  2  0  0  0  0  0  0  0  0  0
    4.4717   -3.1999   -1.4752 O   0  0  0  0  0  0  0  0  0  0  0  0
    5.1694   -2.8057    0.8586 C   0  0  1  0  0  0  0  0  0  0  0  0
    6.1852   -3.1707    1.8030 O   0  0  0  0  0  0  0  0  0  0  0  0
    1.2585   -2.8609    0.1813 H   0  0  0  0  0  0  0  0  0  0  0  0
    1.6357    0.6597   -0.3845 H   0  0  0  0  0  0  0  0  0  0  0  0
    4.9121   -0.8410    1.7643 H   0  0  0  0  0  0  0  0  0  0  0  0
    7.1712   -0.8270    0.9241 H   0  0  0  0  0  0  0  0  0  0  0  0
    5.8180    0.8299   -0.8749 H   0  0  0  0  0  0  0  0  0  0  0  0
    7.7681   -0.9268   -1.4203 H   0  0  0  0  0  0  0  0  0  0  0  0
    5.1095   -1.4786   -2.1702 H   0  0  0  0  0  0  0  0  0  0  0  0
    6.9893   -3.2490   -2.0771 H   0  0  0  0  0  0  0  0  0  0  0  0
    7.6442   -3.3714    0.6575 H   0  0  0  0  0  0  0  0  0  0  0  0
    5.6201   -4.5157   -0.3913 H   0  0  0  0  0  0  0  0  0  0  0  0
    3.6044   -3.3482   -1.0399 H   0  0  0  0  0  0  0  0  0  0  0  0
    4.2287   -3.2330    1.2174 H   0  0  0  0  0  0  0  0  0  0  0  0
    5.8521   -2.9455    2.6938 H   0  0  0  0  0  0  0  0  0  0  0  0
  1  2  2  0  0  0  0
  2  3  1  0  0  0  0
  2  4  1  0  0  0  0
  2  5  1  0  0  0  0
  3 17  1  0  0  0  0
  4 18  1  0  0  0  0
  5  6  1  0  0  0  0
  6  7  1  0  0  0  0
  6 15  1  0  0  0  0
  6 19  1  1  0  0  0
  7  9  1  0  0  0  0
  7  8  1  0  0  0  0
  7 20  1  1  0  0  0
  8 21  1  0  0  0  0
  9 11  1  0  0  0  0
  9 10  1  0  0  0  0
  9 22  1  6  0  0  0
 10 23  1  0  0  0  0
 11 12  1  0  0  0  0
 11 13  1  0  0  0  0
 11 24  1  6  0  0  0
 12 25  1  0  0  0  0
 13 15  1  0  0  0  0
 13 14  1  0  0  0  0
 13 26  1  1  0  0  0
 14 27  1  0  0  0  0
 15 16  1  0  0  0  0
 15 28  1  1  0  0  0
 16 29  1  0  0  0  0
M  END
$$$$
