CHEBI:17791
 OpenBabel04242417363D

 81 84  0  0  1  0  0  0  0  0999 V2000
    1.2875   -2.7159    5.8030 C   0  0  0  0  0  0  0  0  0  0  0  0
    0.9761   -4.0199    5.6861 C   0  0  0  0  0  0  0  0  0  0  0  0
    1.5387   -4.8512    4.5471 C   0  0  0  0  0  0  0  0  0  0  0  0
    0.4438   -5.2885    3.5625 C   0  0  0  0  0  0  0  0  0  0  0  0
    0.9301   -6.0232    2.2886 C   0  0  1  0  0  0  0  0  0  0  0  0
    1.6505   -7.3200    2.7000 C   0  0  0  0  0  0  0  0  0  0  0  0
    1.8106   -5.1648    1.3378 C   0  0  1  0  0  0  0  0  0  0  0  0
    2.3967   -5.9551    0.1655 C   0  0  0  0  0  0  0  0  0  0  0  0
    2.9955   -4.8653   -0.7067 C   0  0  0  0  0  0  0  0  0  0  0  0
    1.8927   -3.7852   -0.7969 C   0  0  1  0  0  0  0  0  0  0  0  0
    0.9273   -4.2019   -1.9450 C   0  0  0  0  0  0  0  0  0  0  0  0
    2.4846   -2.4010   -1.1778 C   0  0  0  0  0  0  0  0  0  0  0  0
    2.2285   -1.2729   -0.4725 C   0  0  0  0  0  0  0  0  0  0  0  0
    1.4150   -1.3365    0.8008 C   0  0  0  0  0  0  0  0  0  0  0  0
    1.6037   -2.6588    1.5187 C   0  0  0  0  0  0  0  0  0  0  0  0
    1.1979   -3.8711    0.6515 C   0  0  2  0  0  0  0  0  0  0  0  0
   -0.3447   -3.9006    0.5433 C   0  0  0  0  0  0  0  0  0  0  0  0
    2.7516    0.1237   -0.8687 C   0  0  1  0  0  0  0  0  0  0  0  0
    3.9577    0.4360    0.0604 C   0  0  0  0  0  0  0  0  0  0  0  0
    1.6521    1.2079   -0.6382 C   0  0  0  0  0  0  0  0  0  0  0  0
    1.8319    2.4389   -1.5202 C   0  0  0  0  0  0  0  0  0  0  0  0
    1.7165    2.0910   -3.0086 C   0  0  2  0  0  0  0  0  0  0  0  0
    0.3926    2.3639   -3.4597 O   0  0  0  0  0  0  0  0  0  0  0  0
    2.1708    0.6478   -3.3659 C   0  0  1  0  0  0  0  0  0  0  0  0
    1.0059   -0.3255   -3.5775 C   0  0  0  0  0  0  0  0  0  0  0  0
    3.2569    0.1945   -2.3487 C   0  0  2  0  0  0  0  0  0  0  0  0
    4.0368   -1.0596   -2.7493 C   0  0  0  0  0  0  0  0  0  0  0  0
    3.3548   -2.3806   -2.4218 C   0  0  0  0  0  0  0  0  0  0  0  0
    0.0711   -4.7399    6.6780 C   0  0  0  0  0  0  0  0  0  0  0  0
    0.6488   -4.7291    8.0956 C   0  0  0  0  0  0  0  0  0  0  0  0
   -1.3500   -4.1690    6.6678 C   0  0  0  0  0  0  0  0  0  0  0  0
    1.9382   -2.2186    5.0901 H   0  0  0  0  0  0  0  0  0  0  0  0
    0.8983   -2.1068    6.6131 H   0  0  0  0  0  0  0  0  0  0  0  0
    2.0471   -5.7247    4.9712 H   0  0  0  0  0  0  0  0  0  0  0  0
    2.3075   -4.2763    4.0199 H   0  0  0  0  0  0  0  0  0  0  0  0
   -0.1556   -4.4170    3.2943 H   0  0  0  0  0  0  0  0  0  0  0  0
   -0.2533   -5.9589    4.0828 H   0  0  0  0  0  0  0  0  0  0  0  0
    0.0336   -6.3346    1.7380 H   0  0  0  0  0  0  0  0  0  0  0  0
    2.6431   -7.1140    3.1144 H   0  0  0  0  0  0  0  0  0  0  0  0
    1.7755   -7.9917    1.8448 H   0  0  0  0  0  0  0  0  0  0  0  0
    1.0742   -7.8681    3.4533 H   0  0  0  0  0  0  0  0  0  0  0  0
    2.6874   -4.8580    1.9254 H   0  0  0  0  0  0  0  0  0  0  0  0
    1.6211   -6.5175   -0.3655 H   0  0  0  0  0  0  0  0  0  0  0  0
    3.1724   -6.6599    0.4810 H   0  0  0  0  0  0  0  0  0  0  0  0
    3.2886   -5.2676   -1.6828 H   0  0  0  0  0  0  0  0  0  0  0  0
    3.8992   -4.4651   -0.2288 H   0  0  0  0  0  0  0  0  0  0  0  0
    1.4614   -4.3727   -2.8864 H   0  0  0  0  0  0  0  0  0  0  0  0
    0.1765   -3.4280   -2.1413 H   0  0  0  0  0  0  0  0  0  0  0  0
    0.4033   -5.1387   -1.7319 H   0  0  0  0  0  0  0  0  0  0  0  0
    0.3590   -1.1525    0.5750 H   0  0  0  0  0  0  0  0  0  0  0  0
    1.7244   -0.5526    1.5000 H   0  0  0  0  0  0  0  0  0  0  0  0
    1.0301   -2.6383    2.4514 H   0  0  0  0  0  0  0  0  0  0  0  0
    2.6594   -2.7338    1.8142 H   0  0  0  0  0  0  0  0  0  0  0  0
   -0.8367   -3.7537    1.5064 H   0  0  0  0  0  0  0  0  0  0  0  0
   -0.7090   -4.8500    0.1394 H   0  0  0  0  0  0  0  0  0  0  0  0
   -0.7189   -3.0974   -0.1000 H   0  0  0  0  0  0  0  0  0  0  0  0
    4.7402   -0.3270   -0.0206 H   0  0  0  0  0  0  0  0  0  0  0  0
    3.6652    0.4838    1.1151 H   0  0  0  0  0  0  0  0  0  0  0  0
    4.4115    1.4024   -0.1861 H   0  0  0  0  0  0  0  0  0  0  0  0
    0.6521    0.7983   -0.8268 H   0  0  0  0  0  0  0  0  0  0  0  0
    1.6480    1.5310    0.4108 H   0  0  0  0  0  0  0  0  0  0  0  0
    2.8176    2.8768   -1.3213 H   0  0  0  0  0  0  0  0  0  0  0  0
    1.0879    3.1957   -1.2446 H   0  0  0  0  0  0  0  0  0  0  0  0
    2.3593    2.7938   -3.5531 H   0  0  0  0  0  0  0  0  0  0  0  0
   -0.2256    1.8855   -2.8810 H   0  0  0  0  0  0  0  0  0  0  0  0
    2.6581    0.7219   -4.3492 H   0  0  0  0  0  0  0  0  0  0  0  0
    0.3061    0.0601   -4.3271 H   0  0  0  0  0  0  0  0  0  0  0  0
    0.4396   -0.5131   -2.6627 H   0  0  0  0  0  0  0  0  0  0  0  0
    1.3532   -1.2814   -3.9720 H   0  0  0  0  0  0  0  0  0  0  0  0
    4.0094    0.9985   -2.3983 H   0  0  0  0  0  0  0  0  0  0  0  0
    5.0038   -1.0442   -2.2284 H   0  0  0  0  0  0  0  0  0  0  0  0
    4.2867   -1.0298   -3.8171 H   0  0  0  0  0  0  0  0  0  0  0  0
    4.1467   -3.1329   -2.3289 H   0  0  0  0  0  0  0  0  0  0  0  0
    2.7621   -2.6844   -3.2884 H   0  0  0  0  0  0  0  0  0  0  0  0
   -0.0027   -5.7940    6.3814 H   0  0  0  0  0  0  0  0  0  0  0  0
    0.6829   -3.7187    8.5168 H   0  0  0  0  0  0  0  0  0  0  0  0
    1.6654   -5.1372    8.1065 H   0  0  0  0  0  0  0  0  0  0  0  0
    0.0359   -5.3457    8.7623 H   0  0  0  0  0  0  0  0  0  0  0  0
   -1.3769   -3.1341    7.0263 H   0  0  0  0  0  0  0  0  0  0  0  0
   -2.0063   -4.7607    7.3152 H   0  0  0  0  0  0  0  0  0  0  0  0
   -1.7747   -4.1877    5.6580 H   0  0  0  0  0  0  0  0  0  0  0  0
  1  2  2  0  0  0  0
  1 32  1  0  0  0  0
  1 33  1  0  0  0  0
  2  3  1  0  0  0  0
  2 29  1  0  0  0  0
  3  4  1  0  0  0  0
  3 34  1  0  0  0  0
  3 35  1  0  0  0  0
  4  5  1  0  0  0  0
  4 36  1  0  0  0  0
  4 37  1  0  0  0  0
  5  6  1  0  0  0  0
  5 38  1  1  0  0  0
  6 39  1  0  0  0  0
  6 40  1  0  0  0  0
  6 41  1  0  0  0  0
  7  8  1  0  0  0  0
  7 16  1  0  0  0  0
  7  5  1  0  0  0  0
  7 42  1  1  0  0  0
  8  9  1  0  0  0  0
  8 43  1  0  0  0  0
  8 44  1  0  0  0  0
  9 10  1  0  0  0  0
  9 45  1  0  0  0  0
  9 46  1  0  0  0  0
 10 11  1  1  0  0  0
 10 12  1  0  0  0  0
 10 16  1  0  0  0  0
 11 47  1  0  0  0  0
 11 48  1  0  0  0  0
 11 49  1  0  0  0  0
 12 13  2  0  0  0  0
 12 28  1  0  0  0  0
 13 14  1  0  0  0  0
 13 18  1  0  0  0  0
 14 15  1  0  0  0  0
 14 50  1  0  0  0  0
 14 51  1  0  0  0  0
 15 16  1  0  0  0  0
 15 52  1  0  0  0  0
 15 53  1  0  0  0  0
 16 17  1  6  0  0  0
 17 54  1  0  0  0  0
 17 55  1  0  0  0  0
 17 56  1  0  0  0  0
 18 19  1  6  0  0  0
 18 20  1  0  0  0  0
 18 26  1  0  0  0  0
 19 57  1  0  0  0  0
 19 58  1  0  0  0  0
 19 59  1  0  0  0  0
 20 21  1  0  0  0  0
 20 60  1  0  0  0  0
 20 61  1  0  0  0  0
 21 22  1  0  0  0  0
 21 62  1  0  0  0  0
 21 63  1  0  0  0  0
 22 23  1  0  0  0  0
 22 24  1  0  0  0  0
 22 64  1  6  0  0  0
 23 65  1  0  0  0  0
 24 26  1  0  0  0  0
 24 25  1  0  0  0  0
 24 66  1  1  0  0  0
 25 67  1  0  0  0  0
 25 68  1  0  0  0  0
 25 69  1  0  0  0  0
 26 27  1  0  0  0  0
 26 70  1  6  0  0  0
 27 28  1  0  0  0  0
 27 71  1  0  0  0  0
 27 72  1  0  0  0  0
 28 73  1  0  0  0  0
 28 74  1  0  0  0  0
 29 30  1  0  0  0  0
 29 31  1  0  0  0  0
 29 75  1  0  0  0  0
 30 76  1  0  0  0  0
 30 77  1  0  0  0  0
 30 78  1  0  0  0  0
 31 79  1  0  0  0  0
 31 80  1  0  0  0  0
 31 81  1  0  0  0  0
M  END
$$$$
