CHEBI:17249
 OpenBabel04242416053D

 41 40  0  0  1  0  0  0  0  0999 V2000
   12.1921   -1.3196   10.4541 N   0  0  0  0  0  0  0  0  0  0  0  0
   12.2291   -1.0741    9.1960 C   0  0  0  0  0  0  0  0  0  0  0  0
   13.3622   -1.0130    8.4743 N   0  0  0  0  0  0  0  0  0  0  0  0
   11.0853   -0.9112    8.5002 N   0  0  0  0  0  0  0  0  0  0  0  0
   10.8781    0.1656    7.5448 C   0  0  0  0  0  0  0  0  0  0  0  0
    9.6896   -0.1949    6.6544 C   0  0  0  0  0  0  0  0  0  0  0  0
    9.3930    0.8941    5.6124 C   0  0  0  0  0  0  0  0  0  0  0  0
    8.3049    0.4538    4.6179 C   0  0  2  0  0  0  0  0  0  0  0  0
    8.1563    1.3552    3.4384 N   0  0  0  0  0  0  0  0  0  0  0  0
    9.3287    1.4103    2.5239 C   0  0  2  0  0  0  0  0  0  0  0  0
    8.9743    2.3595    1.3601 C   0  0  0  0  0  0  0  0  0  0  0  0
   10.1677    2.7301    0.4716 C   0  0  0  0  0  0  0  0  0  0  0  0
   10.4771    1.7036   -0.5866 C   0  0  0  0  0  0  0  0  0  0  0  0
    9.7735    0.7751   -0.9394 O   0  0  0  0  0  0  0  0  0  0  0  0
   11.6683    1.9331   -1.1711 O   0  0  0  0  0  0  0  0  0  0  0  0
    9.7238    0.0315    1.9918 C   0  0  0  0  0  0  0  0  0  0  0  0
   10.8736   -0.3475    1.8250 O   0  0  0  0  0  0  0  0  0  0  0  0
    8.6809   -0.7539    1.6577 O   0  0  0  0  0  0  0  0  0  0  0  0
    6.8997    0.4022    5.2738 C   0  0  0  0  0  0  0  0  0  0  0  0
    6.6549    0.3886    6.4683 O   0  0  0  0  0  0  0  0  0  0  0  0
    5.9259    0.3739    4.3227 O   0  0  0  0  0  0  0  0  0  0  0  0
   13.1433   -1.4110   10.8126 H   0  0  0  0  0  0  0  0  0  0  0  0
   14.1685   -1.4292    8.9204 H   0  0  0  0  0  0  0  0  0  0  0  0
   13.2344   -1.3820    7.5394 H   0  0  0  0  0  0  0  0  0  0  0  0
   10.3049   -0.9848    9.1515 H   0  0  0  0  0  0  0  0  0  0  0  0
   11.7646    0.3173    6.9193 H   0  0  0  0  0  0  0  0  0  0  0  0
   10.6839    1.1003    8.0831 H   0  0  0  0  0  0  0  0  0  0  0  0
    8.8137   -0.3732    7.2866 H   0  0  0  0  0  0  0  0  0  0  0  0
    9.9015   -1.1427    6.1426 H   0  0  0  0  0  0  0  0  0  0  0  0
   10.3284    1.0980    5.0802 H   0  0  0  0  0  0  0  0  0  0  0  0
    9.1007    1.8223    6.1181 H   0  0  0  0  0  0  0  0  0  0  0  0
    8.5043   -0.5698    4.2803 H   0  0  0  0  0  0  0  0  0  0  0  0
    7.9740    2.3028    3.7832 H   0  0  0  0  0  0  0  0  0  0  0  0
   10.1858    1.8223    3.0667 H   0  0  0  0  0  0  0  0  0  0  0  0
    8.1651    1.9339    0.7527 H   0  0  0  0  0  0  0  0  0  0  0  0
    8.5882    3.2973    1.7826 H   0  0  0  0  0  0  0  0  0  0  0  0
   11.0587    2.8967    1.0864 H   0  0  0  0  0  0  0  0  0  0  0  0
    9.9354    3.6620   -0.0574 H   0  0  0  0  0  0  0  0  0  0  0  0
   11.7647    1.2083   -1.8243 H   0  0  0  0  0  0  0  0  0  0  0  0
    9.0906   -1.5203    1.2034 H   0  0  0  0  0  0  0  0  0  0  0  0
    6.3696    0.4849    3.4478 H   0  0  0  0  0  0  0  0  0  0  0  0
  1  2  2  0  0  0  0
  1 22  1  0  0  0  0
  2  3  1  0  0  0  0
  2  4  1  0  0  0  0
  3 23  1  0  0  0  0
  3 24  1  0  0  0  0
  4  5  1  0  0  0  0
  4 25  1  0  0  0  0
  5  6  1  0  0  0  0
  5 26  1  0  0  0  0
  5 27  1  0  0  0  0
  6  7  1  0  0  0  0
  6 28  1  0  0  0  0
  6 29  1  0  0  0  0
  7 30  1  0  0  0  0
  7 31  1  0  0  0  0
  8 19  1  0  0  0  0
  8  9  1  0  0  0  0
  8  7  1  0  0  0  0
  8 32  1  6  0  0  0
  9 33  1  0  0  0  0
 10 16  1  0  0  0  0
 10 11  1  0  0  0  0
 10  9  1  0  0  0  0
 10 34  1  1  0  0  0
 11 12  1  0  0  0  0
 11 35  1  0  0  0  0
 11 36  1  0  0  0  0
 12 13  1  0  0  0  0
 12 37  1  0  0  0  0
 12 38  1  0  0  0  0
 13 14  2  0  0  0  0
 13 15  1  0  0  0  0
 15 39  1  0  0  0  0
 16 17  2  0  0  0  0
 16 18  1  0  0  0  0
 18 40  1  0  0  0  0
 19 20  2  0  0  0  0
 19 21  1  0  0  0  0
 21 41  1  0  0  0  0
M  END
$$$$
