CHEBI:16494
 OpenBabel04242414343D

 26 26  0  0  0  0  0  0  0  0999 V2000
    2.7867   -0.5667   -0.3917 O   0  0  0  0  0  0  0  0  0  0  0  0
    3.2529   -1.6264   -0.0063 C   0  0  0  0  0  0  0  0  0  0  0  0
    2.4715   -2.6519    0.4061 O   0  0  0  0  0  0  0  0  0  0  0  0
    4.7243   -1.9722    0.0443 C   0  0  0  0  0  0  0  0  0  0  0  0
    5.6361   -0.7757   -0.2308 C   0  0  0  0  0  0  0  0  0  0  0  0
    5.6565    0.2245    0.9306 C   0  0  0  0  0  0  0  0  0  0  0  0
    6.6405    1.3693    0.6597 C   0  0  0  0  0  0  0  0  0  0  0  0
    6.6484    2.4405    1.7582 C   0  0  0  0  0  0  0  0  0  0  0  0
    7.5490    3.6238    1.3825 C   0  0  0  0  0  0  0  0  0  0  0  0
    7.6835    4.5717    2.5682 C   0  0  0  0  0  0  0  0  0  0  0  0
    8.1386    3.5617    3.9978 S   0  0  0  0  0  0  0  0  0  0  0  0
    7.2969    1.8117    3.3439 S   0  0  0  0  0  0  0  0  0  0  0  0
    2.9718   -3.4453    0.6755 H   0  0  0  0  0  0  0  0  0  0  0  0
    4.9037   -2.7375   -0.7193 H   0  0  0  0  0  0  0  0  0  0  0  0
    4.9579   -2.3967    1.0270 H   0  0  0  0  0  0  0  0  0  0  0  0
    5.3289   -0.2686   -1.1534 H   0  0  0  0  0  0  0  0  0  0  0  0
    6.6544   -1.1492   -0.3948 H   0  0  0  0  0  0  0  0  0  0  0  0
    5.9329   -0.3044    1.8493 H   0  0  0  0  0  0  0  0  0  0  0  0
    4.6546    0.6401    1.0864 H   0  0  0  0  0  0  0  0  0  0  0  0
    6.3638    1.8470   -0.2894 H   0  0  0  0  0  0  0  0  0  0  0  0
    7.6501    0.9624    0.5168 H   0  0  0  0  0  0  0  0  0  0  0  0
    5.6261    2.7983    1.9298 H   0  0  0  0  0  0  0  0  0  0  0  0
    7.1229    4.1639    0.5284 H   0  0  0  0  0  0  0  0  0  0  0  0
    8.5409    3.2756    1.0615 H   0  0  0  0  0  0  0  0  0  0  0  0
    6.7358    5.0798    2.7743 H   0  0  0  0  0  0  0  0  0  0  0  0
    8.4479    5.3320    2.3845 H   0  0  0  0  0  0  0  0  0  0  0  0
  1  2  2  0  0  0  0
  2  3  1  0  0  0  0
  2  4  1  0  0  0  0
  3 13  1  0  0  0  0
  4  5  1  0  0  0  0
  4 14  1  0  0  0  0
  4 15  1  0  0  0  0
  5  6  1  0  0  0  0
  5 16  1  0  0  0  0
  5 17  1  0  0  0  0
  6  7  1  0  0  0  0
  6 18  1  0  0  0  0
  6 19  1  0  0  0  0
  7  8  1  0  0  0  0
  7 20  1  0  0  0  0
  7 21  1  0  0  0  0
  8  9  1  0  0  0  0
  8 12  1  0  0  0  0
  8 22  1  0  0  0  0
  9 10  1  0  0  0  0
  9 23  1  0  0  0  0
  9 24  1  0  0  0  0
 10 11  1  0  0  0  0
 10 25  1  0  0  0  0
 10 26  1  0  0  0  0
 11 12  1  0  0  0  0
M  END
$$$$
