CHEBI:16735
 OpenBabel04242415093D

 51 52  0  0  1  0  0  0  0  0999 V2000
    4.7451    2.1309   -1.5017 C   0  0  0  0  0  0  0  0  0  0  0  0
    4.8395    2.1643   -0.0005 C   0  0  0  0  0  0  0  0  0  0  0  0
    5.8699    2.4226    0.6127 O   0  0  0  0  0  0  0  0  0  0  0  0
    3.6529    1.8599    0.6246 N   0  0  0  0  0  0  0  0  0  0  0  0
    3.4914    1.9982    2.0818 C   0  0  1  0  0  0  0  0  0  0  0  0
    2.0023    1.8287    2.4963 C   0  0  0  0  0  0  0  0  0  0  0  0
    1.1627    2.2483    1.4231 O   0  0  0  0  0  0  0  0  0  0  0  0
    1.6300    0.5111    2.8677 O   0  0  0  0  0  0  0  0  0  0  0  0
    2.3730   -0.5133    2.1961 C   0  0  2  0  0  0  0  0  0  0  0  0
    1.7109   -1.8701    2.4658 C   0  0  0  0  0  0  0  0  0  0  0  0
    1.4463   -2.0657    3.8482 O   0  0  0  0  0  0  0  0  0  0  0  0
    0.7551   -3.4695    4.2673 S   0  0  0  0  0  0  0  0  0  0  0  0
   -0.5088   -3.5701    3.5675 O   0  0  0  0  0  0  0  0  0  0  0  0
    1.7437   -4.5180    4.2104 O   0  0  0  0  0  0  0  0  0  0  0  0
    0.3632   -3.2236    5.8090 O   0  0  0  0  0  0  0  0  0  0  0  0
    3.8823   -0.4485    2.5462 C   0  0  2  0  0  0  0  0  0  0  0  0
    4.2536   -1.3645    3.5760 O   0  0  0  0  0  0  0  0  0  0  0  0
    4.3593    0.9947    2.8745 C   0  0  2  0  0  0  0  0  0  0  0  0
    4.3551    1.1935    4.3085 O   0  0  0  0  0  0  0  0  0  0  0  0
    4.7773    2.4995    4.7355 C   0  0  2  0  0  0  0  0  0  0  0  0
    6.0479    2.8588    4.1817 O   0  0  0  0  0  0  0  0  0  0  0  0
    7.1646    2.5362    4.9162 C   0  0  0  0  0  0  0  0  0  0  0  0
    8.4923    2.6249    4.2342 C   0  0  0  0  0  0  0  0  0  0  0  0
    9.5712    2.5281    4.7954 O   0  0  0  0  0  0  0  0  0  0  0  0
    8.3585    2.8072    2.9028 O   0  0  0  0  0  0  0  0  0  0  0  0
    7.1379    2.1496    6.1990 C   0  0  0  0  0  0  0  0  0  0  0  0
    5.8911    2.0775    7.0013 C   0  0  2  0  0  0  0  0  0  0  0  0
    5.7039    0.7255    7.4032 O   0  0  0  0  0  0  0  0  0  0  0  0
    4.6537    2.6216    6.2726 C   0  0  1  0  0  0  0  0  0  0  0  0
    4.4524    4.0068    6.6139 O   0  0  0  0  0  0  0  0  0  0  0  0
    5.7351    2.2848   -1.9385 H   0  0  0  0  0  0  0  0  0  0  0  0
    4.0746    2.9224   -1.8479 H   0  0  0  0  0  0  0  0  0  0  0  0
    4.3644    1.1586   -1.8287 H   0  0  0  0  0  0  0  0  0  0  0  0
    2.7927    1.9912    0.0934 H   0  0  0  0  0  0  0  0  0  0  0  0
    3.7813    3.0348    2.2839 H   0  0  0  0  0  0  0  0  0  0  0  0
    1.7951    2.4732    3.3579 H   0  0  0  0  0  0  0  0  0  0  0  0
    0.2734    2.3043    1.8166 H   0  0  0  0  0  0  0  0  0  0  0  0
    2.2696   -0.3356    1.1169 H   0  0  0  0  0  0  0  0  0  0  0  0
    0.7501   -1.8896    1.9376 H   0  0  0  0  0  0  0  0  0  0  0  0
    2.3320   -2.6851    2.0769 H   0  0  0  0  0  0  0  0  0  0  0  0
   -0.5063   -2.7768    5.8197 H   0  0  0  0  0  0  0  0  0  0  0  0
    4.4159   -0.7903    1.6493 H   0  0  0  0  0  0  0  0  0  0  0  0
    5.1319   -1.1010    3.9008 H   0  0  0  0  0  0  0  0  0  0  0  0
    5.4099    1.0494    2.5707 H   0  0  0  0  0  0  0  0  0  0  0  0
    4.0660    3.2255    4.3303 H   0  0  0  0  0  0  0  0  0  0  0  0
    7.4223    2.8496    2.6090 H   0  0  0  0  0  0  0  0  0  0  0  0
    8.0637    1.9101    6.7205 H   0  0  0  0  0  0  0  0  0  0  0  0
    6.0489    2.6547    7.9205 H   0  0  0  0  0  0  0  0  0  0  0  0
    5.5589    0.1856    6.6063 H   0  0  0  0  0  0  0  0  0  0  0  0
    3.7568    2.0824    6.6020 H   0  0  0  0  0  0  0  0  0  0  0  0
    4.2519    4.0395    7.5676 H   0  0  0  0  0  0  0  0  0  0  0  0
  1  2  1  0  0  0  0
  1 31  1  0  0  0  0
  1 32  1  0  0  0  0
  1 33  1  0  0  0  0
  2  3  2  0  0  0  0
  2  4  1  0  0  0  0
  4 34  1  0  0  0  0
  5  6  1  0  0  0  0
  5 18  1  0  0  0  0
  5  4  1  0  0  0  0
  5 35  1  1  0  0  0
  6  7  1  0  0  0  0
  6  8  1  0  0  0  0
  6 36  1  0  0  0  0
  7 37  1  0  0  0  0
  8  9  1  0  0  0  0
  9 16  1  0  0  0  0
  9 10  1  0  0  0  0
  9 38  1  6  0  0  0
 10 11  1  0  0  0  0
 10 39  1  0  0  0  0
 10 40  1  0  0  0  0
 11 12  1  0  0  0  0
 12 13  2  0  0  0  0
 12 14  2  0  0  0  0
 12 15  1  0  0  0  0
 15 41  1  0  0  0  0
 16 18  1  0  0  0  0
 16 17  1  0  0  0  0
 16 42  1  6  0  0  0
 17 43  1  0  0  0  0
 18 19  1  0  0  0  0
 18 44  1  6  0  0  0
 19 20  1  0  0  0  0
 20 21  1  0  0  0  0
 20 29  1  0  0  0  0
 20 45  1  6  0  0  0
 21 22  1  0  0  0  0
 22 23  1  0  0  0  0
 22 26  2  0  0  0  0
 23 24  2  0  0  0  0
 23 25  1  0  0  0  0
 25 46  1  0  0  0  0
 26 27  1  0  0  0  0
 26 47  1  0  0  0  0
 27 28  1  0  0  0  0
 27 29  1  0  0  0  0
 27 48  1  1  0  0  0
 28 49  1  0  0  0  0
 29 30  1  0  0  0  0
 29 50  1  1  0  0  0
 30 51  1  0  0  0  0
M  END
$$$$
