CHEBI:17817
 OpenBabel04242417393D

 57 59  0  0  1  0  0  0  0  0999 V2000
   -7.3388    2.7105   -1.2894 C   0  0  0  0  0  0  0  0  0  0  0  0
   -6.8100    3.9793   -1.9378 C   0  0  1  0  0  0  0  0  0  0  0  0
   -5.5088    4.2181   -1.4230 O   0  0  0  0  0  0  0  0  0  0  0  0
   -4.9301    5.4435   -1.8751 C   0  0  0  0  0  0  0  0  0  0  0  0
   -3.6558    5.4973   -1.2646 O   0  0  0  0  0  0  0  0  0  0  0  0
   -2.8965    6.8918   -1.1049 P   0  0  0  0  0  0  0  0  0  0  0  0
   -2.5152    7.5070   -2.4111 O   0  0  0  0  0  0  0  0  0  0  0  0
   -3.9101    7.7864   -0.2526 O   0  0  0  0  0  0  0  0  0  0  0  0
   -1.7073    6.5488   -0.1199 O   0  0  0  0  0  0  0  0  0  0  0  0
   -0.6901    7.5851    0.5034 P   0  0  0  0  0  0  0  0  0  0  0  0
   -0.3509    8.7822   -0.3159 O   0  0  0  0  0  0  0  0  0  0  0  0
   -1.3497    7.9699    1.9098 O   0  0  0  0  0  0  0  0  0  0  0  0
    0.5600    6.6890    0.9647 O   0  0  0  0  0  0  0  0  0  0  0  0
    1.3206    6.0817   -0.0726 C   0  0  0  0  0  0  0  0  0  0  0  0
    2.3857    5.1536    0.5209 C   0  0  1  0  0  0  0  0  0  0  0  0
    1.7356    4.0469    1.2008 O   0  0  0  0  0  0  0  0  0  0  0  0
    2.1264    2.8101    0.5538 C   0  0  1  0  0  0  0  0  0  0  0  0
    1.0440    1.8287    0.7193 N   0  0  0  0  0  0  0  0  0  0  0  0
    0.4994    1.6820    1.9836 C   0  0  0  0  0  0  0  0  0  0  0  0
   -0.3813    0.7232    2.2616 C   0  0  0  0  0  0  0  0  0  0  0  0
   -0.7565   -0.1448    1.1334 C   0  0  0  0  0  0  0  0  0  0  0  0
   -1.7041   -1.1144    1.3068 N   0  0  0  0  0  0  0  0  0  0  0  0
   -0.2182   -0.0491   -0.0407 N   0  0  0  0  0  0  0  0  0  0  0  0
    0.7537    0.8920   -0.2773 C   0  0  0  0  0  0  0  0  0  0  0  0
    1.3523    0.8882   -1.3521 O   0  0  0  0  0  0  0  0  0  0  0  0
    2.5474    3.2337   -0.8635 C   0  0  2  0  0  0  0  0  0  0  0  0
    3.4541    2.3402   -1.5101 O   0  0  0  0  0  0  0  0  0  0  0  0
    3.2579    4.5432   -0.5706 C   0  0  2  0  0  0  0  0  0  0  0  0
    4.5701    4.2660   -0.0600 O   0  0  0  0  0  0  0  0  0  0  0  0
   -4.8013    5.4732   -3.4227 C   0  0  2  0  0  0  0  0  0  0  0  0
   -4.5445    6.8033   -3.8933 O   0  0  0  0  0  0  0  0  0  0  0  0
   -6.0662    5.0175   -4.1444 C   0  0  0  0  0  0  0  0  0  0  0  0
   -6.7257    3.8562   -3.4529 C   0  0  0  0  0  0  0  0  0  0  0  0
   -7.2630    2.9535   -4.0925 O   0  0  0  0  0  0  0  0  0  0  0  0
   -7.3707    2.8240   -0.2003 H   0  0  0  0  0  0  0  0  0  0  0  0
   -6.6831    1.8580   -1.5000 H   0  0  0  0  0  0  0  0  0  0  0  0
   -8.3447    2.4675   -1.6450 H   0  0  0  0  0  0  0  0  0  0  0  0
   -7.4726    4.8168   -1.6894 H   0  0  0  0  0  0  0  0  0  0  0  0
   -5.5408    6.2807   -1.5178 H   0  0  0  0  0  0  0  0  0  0  0  0
   -3.7321    8.7418   -0.3475 H   0  0  0  0  0  0  0  0  0  0  0  0
   -0.8064    8.6227    2.3876 H   0  0  0  0  0  0  0  0  0  0  0  0
    1.7965    6.8754   -0.6587 H   0  0  0  0  0  0  0  0  0  0  0  0
    0.6398    5.5204   -0.7210 H   0  0  0  0  0  0  0  0  0  0  0  0
    2.9737    5.6868    1.2758 H   0  0  0  0  0  0  0  0  0  0  0  0
    2.9912    2.4010    1.0941 H   0  0  0  0  0  0  0  0  0  0  0  0
    0.8307    2.3736    2.7538 H   0  0  0  0  0  0  0  0  0  0  0  0
   -0.8215    0.5792    3.2371 H   0  0  0  0  0  0  0  0  0  0  0  0
   -1.7476   -1.5644    2.2124 H   0  0  0  0  0  0  0  0  0  0  0  0
   -1.7302   -1.7707    0.5319 H   0  0  0  0  0  0  0  0  0  0  0  0
    1.6801    3.4175   -1.5090 H   0  0  0  0  0  0  0  0  0  0  0  0
    2.9076    1.5503   -1.7336 H   0  0  0  0  0  0  0  0  0  0  0  0
    3.3860    5.1751   -1.4541 H   0  0  0  0  0  0  0  0  0  0  0  0
    4.9162    3.5475   -0.6321 H   0  0  0  0  0  0  0  0  0  0  0  0
   -3.9613    4.8395   -3.7324 H   0  0  0  0  0  0  0  0  0  0  0  0
   -3.6274    7.0578   -3.6458 H   0  0  0  0  0  0  0  0  0  0  0  0
   -5.8210    4.7372   -5.1754 H   0  0  0  0  0  0  0  0  0  0  0  0
   -6.7998    5.8306   -4.2027 H   0  0  0  0  0  0  0  0  0  0  0  0
  1 35  1  0  0  0  0
  1 36  1  0  0  0  0
  1 37  1  0  0  0  0
  2  3  1  0  0  0  0
  2 33  1  0  0  0  0
  2  1  1  0  0  0  0
  2 38  1  1  0  0  0
  3  4  1  0  0  0  0
  4  5  1  0  0  0  0
  4 30  1  0  0  0  0
  4 39  1  0  0  0  0
  5  6  1  0  0  0  0
  6  7  2  0  0  0  0
  6  8  1  0  0  0  0
  6  9  1  0  0  0  0
  8 40  1  0  0  0  0
  9 10  1  0  0  0  0
 10 11  2  0  0  0  0
 10 12  1  0  0  0  0
 10 13  1  0  0  0  0
 12 41  1  0  0  0  0
 13 14  1  0  0  0  0
 14 15  1  0  0  0  0
 14 42  1  0  0  0  0
 14 43  1  0  0  0  0
 15 16  1  0  0  0  0
 15 28  1  0  0  0  0
 15 44  1  1  0  0  0
 16 17  1  0  0  0  0
 17 18  1  0  0  0  0
 17 26  1  0  0  0  0
 17 45  1  1  0  0  0
 18 19  1  0  0  0  0
 18 24  1  0  0  0  0
 19 20  2  0  0  0  0
 19 46  1  0  0  0  0
 20 21  1  0  0  0  0
 20 47  1  0  0  0  0
 21 22  1  0  0  0  0
 21 23  2  0  0  0  0
 22 48  1  0  0  0  0
 22 49  1  0  0  0  0
 23 24  1  0  0  0  0
 24 25  2  0  0  0  0
 26 27  1  0  0  0  0
 26 28  1  0  0  0  0
 26 50  1  6  0  0  0
 27 51  1  0  0  0  0
 28 29  1  0  0  0  0
 28 52  1  6  0  0  0
 29 53  1  0  0  0  0
 30 32  1  0  0  0  0
 30 31  1  0  0  0  0
 30 54  1  6  0  0  0
 31 55  1  0  0  0  0
 32 33  1  0  0  0  0
 32 56  1  0  0  0  0
 32 57  1  0  0  0  0
 33 34  2  0  0  0  0
M  END
$$$$
