CHEBI:17858
 OpenBabel04242417433D

 72 71  0  0  1  0  0  0  0  0999 V2000
    1.1086   -9.8268   -7.2632 N   0  0  0  0  0  0  0  0  0  0  0  0
   -0.2371   -9.2403   -7.0271 C   0  0  1  0  0  0  0  0  0  0  0  0
   -0.1007   -8.1853   -5.9178 C   0  0  0  0  0  0  0  0  0  0  0  0
   -1.3874   -7.4506   -5.5372 C   0  0  0  0  0  0  0  0  0  0  0  0
   -2.5323   -8.3743   -5.1715 C   0  0  0  0  0  0  0  0  0  0  0  0
   -2.3872   -9.5263   -4.7838 O   0  0  0  0  0  0  0  0  0  0  0  0
   -3.7648   -7.7828   -5.3142 N   0  0  0  0  0  0  0  0  0  0  0  0
   -5.0029   -8.5008   -4.9942 C   0  0  1  0  0  0  0  0  0  0  0  0
   -5.3868   -8.4090   -3.5081 C   0  0  0  0  0  0  0  0  0  0  0  0
   -5.9929   -6.7500   -2.9780 S   0  0  0  0  0  0  0  0  0  0  0  0
   -4.3366   -5.5452   -3.0609 S   0  0  0  0  0  0  0  0  0  0  0  0
   -4.4099   -4.6786   -1.4495 C   0  0  0  0  0  0  0  0  0  0  0  0
   -3.2922   -3.6304   -1.3831 C   0  0  2  0  0  0  0  0  0  0  0  0
   -2.0781   -4.2325   -0.8108 N   0  0  0  0  0  0  0  0  0  0  0  0
   -0.7767   -3.9158   -1.0586 C   0  0  0  0  0  0  0  0  0  0  0  0
    0.0977   -4.4355   -0.3679 O   0  0  0  0  0  0  0  0  0  0  0  0
   -0.4695   -2.9424   -2.1789 C   0  0  0  0  0  0  0  0  0  0  0  0
    1.0425   -2.7955   -2.3871 C   0  0  0  0  0  0  0  0  0  0  0  0
    1.3951   -1.7420   -3.4411 C   0  0  2  0  0  0  0  0  0  0  0  0
    2.8248   -1.8473   -3.8167 N   0  0  0  0  0  0  0  0  0  0  0  0
    1.1052   -0.3351   -2.8999 C   0  0  0  0  0  0  0  0  0  0  0  0
    0.0509    0.2730   -2.9993 O   0  0  0  0  0  0  0  0  0  0  0  0
    2.1284    0.1857   -2.1830 O   0  0  0  0  0  0  0  0  0  0  0  0
   -3.7152   -2.4149   -0.5334 C   0  0  0  0  0  0  0  0  0  0  0  0
   -3.3465   -2.2739    0.6345 O   0  0  0  0  0  0  0  0  0  0  0  0
   -4.4862   -1.4221   -1.0784 N   0  0  0  0  0  0  0  0  0  0  0  0
   -5.5831   -1.5595   -2.0350 C   0  0  0  0  0  0  0  0  0  0  0  0
   -5.2325   -1.9510   -3.4634 C   0  0  0  0  0  0  0  0  0  0  0  0
   -4.1527   -1.8484   -4.0195 O   0  0  0  0  0  0  0  0  0  0  0  0
   -6.2960   -2.4645   -4.1155 O   0  0  0  0  0  0  0  0  0  0  0  0
   -6.1411   -8.0389   -5.9291 C   0  0  0  0  0  0  0  0  0  0  0  0
   -7.3326   -8.1954   -5.6795 O   0  0  0  0  0  0  0  0  0  0  0  0
   -5.7027   -7.5450   -7.1387 N   0  0  0  0  0  0  0  0  0  0  0  0
   -6.6169   -7.0690   -8.1596 C   0  0  0  0  0  0  0  0  0  0  0  0
   -5.9169   -7.0188   -9.5054 C   0  0  0  0  0  0  0  0  0  0  0  0
   -4.7276   -7.2214   -9.7128 O   0  0  0  0  0  0  0  0  0  0  0  0
   -6.7532   -6.6843  -10.5081 O   0  0  0  0  0  0  0  0  0  0  0  0
   -0.7843   -8.6661   -8.3450 C   0  0  0  0  0  0  0  0  0  0  0  0
   -0.1465   -8.4779   -9.3704 O   0  0  0  0  0  0  0  0  0  0  0  0
   -2.1060   -8.3947   -8.3005 O   0  0  0  0  0  0  0  0  0  0  0  0
    1.6921   -9.1190   -7.7153 H   0  0  0  0  0  0  0  0  0  0  0  0
    1.0183  -10.5651   -7.9630 H   0  0  0  0  0  0  0  0  0  0  0  0
   -0.8888  -10.0650   -6.7236 H   0  0  0  0  0  0  0  0  0  0  0  0
    0.6359   -7.4272   -6.2174 H   0  0  0  0  0  0  0  0  0  0  0  0
    0.3011   -8.6689   -5.0170 H   0  0  0  0  0  0  0  0  0  0  0  0
   -1.6940   -6.7876   -6.3541 H   0  0  0  0  0  0  0  0  0  0  0  0
   -1.1915   -6.8114   -4.6679 H   0  0  0  0  0  0  0  0  0  0  0  0
   -3.8110   -6.7696   -5.3130 H   0  0  0  0  0  0  0  0  0  0  0  0
   -4.8356   -9.5587   -5.2360 H   0  0  0  0  0  0  0  0  0  0  0  0
   -6.2069   -9.1082   -3.3092 H   0  0  0  0  0  0  0  0  0  0  0  0
   -4.5509   -8.7048   -2.8645 H   0  0  0  0  0  0  0  0  0  0  0  0
   -4.3165   -5.4106   -0.6394 H   0  0  0  0  0  0  0  0  0  0  0  0
   -5.3976   -4.2222   -1.3667 H   0  0  0  0  0  0  0  0  0  0  0  0
   -3.0348   -3.2437   -2.3700 H   0  0  0  0  0  0  0  0  0  0  0  0
   -2.1754   -4.7320    0.0673 H   0  0  0  0  0  0  0  0  0  0  0  0
   -0.9168   -1.9792   -1.9139 H   0  0  0  0  0  0  0  0  0  0  0  0
   -0.9273   -3.3056   -3.1052 H   0  0  0  0  0  0  0  0  0  0  0  0
    1.4392   -3.7741   -2.6900 H   0  0  0  0  0  0  0  0  0  0  0  0
    1.5259   -2.5459   -1.4331 H   0  0  0  0  0  0  0  0  0  0  0  0
    0.8061   -1.8842   -4.3533 H   0  0  0  0  0  0  0  0  0  0  0  0
    3.3751   -1.4656   -3.0413 H   0  0  0  0  0  0  0  0  0  0  0  0
    3.0912   -2.8273   -3.8939 H   0  0  0  0  0  0  0  0  0  0  0  0
    1.7928    1.0594   -1.8942 H   0  0  0  0  0  0  0  0  0  0  0  0
   -4.6296   -0.6938   -0.3865 H   0  0  0  0  0  0  0  0  0  0  0  0
   -6.0773   -0.5832   -2.0852 H   0  0  0  0  0  0  0  0  0  0  0  0
   -6.2912   -2.2824   -1.6207 H   0  0  0  0  0  0  0  0  0  0  0  0
   -5.9608   -2.6999   -5.0066 H   0  0  0  0  0  0  0  0  0  0  0  0
   -4.7073   -7.5921   -7.3479 H   0  0  0  0  0  0  0  0  0  0  0  0
   -6.9343   -6.0601   -7.8783 H   0  0  0  0  0  0  0  0  0  0  0  0
   -7.4823   -7.7354   -8.2137 H   0  0  0  0  0  0  0  0  0  0  0  0
   -6.2054   -6.6890  -11.3206 H   0  0  0  0  0  0  0  0  0  0  0  0
   -2.3443   -8.0959   -9.2076 H   0  0  0  0  0  0  0  0  0  0  0  0
  1  2  1  0  0  0  0
  1 41  1  0  0  0  0
  1 42  1  0  0  0  0
  2  3  1  0  0  0  0
  2 38  1  0  0  0  0
  2 43  1  1  0  0  0
  3  4  1  0  0  0  0
  3 44  1  0  0  0  0
  3 45  1  0  0  0  0
  4  5  1  0  0  0  0
  4 46  1  0  0  0  0
  4 47  1  0  0  0  0
  5  6  2  0  0  0  0
  5  7  1  0  0  0  0
  7  8  1  0  0  0  0
  7 48  1  0  0  0  0
  8  9  1  0  0  0  0
  8 31  1  0  0  0  0
  8 49  1  6  0  0  0
  9 10  1  0  0  0  0
  9 50  1  0  0  0  0
  9 51  1  0  0  0  0
 10 11  1  0  0  0  0
 11 12  1  0  0  0  0
 12 52  1  0  0  0  0
 12 53  1  0  0  0  0
 13 24  1  0  0  0  0
 13 14  1  0  0  0  0
 13 12  1  0  0  0  0
 13 54  1  6  0  0  0
 14 15  1  0  0  0  0
 14 55  1  0  0  0  0
 15 16  2  0  0  0  0
 15 17  1  0  0  0  0
 17 18  1  0  0  0  0
 17 56  1  0  0  0  0
 17 57  1  0  0  0  0
 18 58  1  0  0  0  0
 18 59  1  0  0  0  0
 19 21  1  0  0  0  0
 19 20  1  0  0  0  0
 19 18  1  0  0  0  0
 19 60  1  6  0  0  0
 20 61  1  0  0  0  0
 20 62  1  0  0  0  0
 21 22  2  0  0  0  0
 21 23  1  0  0  0  0
 23 63  1  0  0  0  0
 24 25  2  0  0  0  0
 24 26  1  0  0  0  0
 26 27  1  0  0  0  0
 26 64  1  0  0  0  0
 27 28  1  0  0  0  0
 27 65  1  0  0  0  0
 27 66  1  0  0  0  0
 28 29  2  0  0  0  0
 28 30  1  0  0  0  0
 30 67  1  0  0  0  0
 31 32  2  0  0  0  0
 31 33  1  0  0  0  0
 33 34  1  0  0  0  0
 33 68  1  0  0  0  0
 34 35  1  0  0  0  0
 34 69  1  0  0  0  0
 34 70  1  0  0  0  0
 35 36  2  0  0  0  0
 35 37  1  0  0  0  0
 37 71  1  0  0  0  0
 38 39  2  0  0  0  0
 38 40  1  0  0  0  0
 40 72  1  0  0  0  0
M  END
$$$$
