CHEBI:16260
 OpenBabel04242414043D

 15 15  0  0  0  0  0  0  0  0999 V2000
    1.7577    0.5844    0.9029 O   0  0  0  0  0  0  0  0  0  0  0  0
    2.2363   -0.0863   -0.0241 N   0  3  0  0  0  0  0  0  0  0  0  0
    2.1796    0.2075   -1.2260 O   0  5  0  0  0  0  0  0  0  0  0  0
    2.9901   -1.2679    0.3455 C   0  0  0  0  0  0  0  0  0  0  0  0
    4.0781   -1.1112    1.2134 C   0  0  0  0  0  0  0  0  0  0  0  0
    4.8173   -2.2343    1.5824 C   0  0  0  0  0  0  0  0  0  0  0  0
    4.4668   -3.4934    1.0883 C   0  0  0  0  0  0  0  0  0  0  0  0
    3.3745   -3.6401    0.2258 C   0  0  0  0  0  0  0  0  0  0  0  0
    2.6271   -2.5225   -0.1465 C   0  0  0  0  0  0  0  0  0  0  0  0
    1.5398   -2.6739   -0.9559 O   0  0  0  0  0  0  0  0  0  0  0  0
    4.3482   -0.1308    1.5989 H   0  0  0  0  0  0  0  0  0  0  0  0
    5.6649   -2.1314    2.2567 H   0  0  0  0  0  0  0  0  0  0  0  0
    5.0445   -4.3677    1.3825 H   0  0  0  0  0  0  0  0  0  0  0  0
    3.1202   -4.6330   -0.1348 H   0  0  0  0  0  0  0  0  0  0  0  0
    1.4549   -3.6037   -1.2268 H   0  0  0  0  0  0  0  0  0  0  0  0
  1  2  2  0  0  0  0
  2  3  1  0  0  0  0
  2  4  1  0  0  0  0
  4  5  1  0  0  0  0
  4  9  2  0  0  0  0
  5  6  2  0  0  0  0
  5 11  1  0  0  0  0
  6  7  1  0  0  0  0
  6 12  1  0  0  0  0
  7  8  2  0  0  0  0
  7 13  1  0  0  0  0
  8  9  1  0  0  0  0
  8 14  1  0  0  0  0
  9 10  1  0  0  0  0
 10 15  1  0  0  0  0
M  CHG  2   2   1   3  -1
M  END
$$$$
