CHEBI:16993
 OpenBabel04242415403D

 19 19  0  0  0  0  0  0  0  0999 V2000
    3.4338   -2.9736   -1.3072 O   0  0  0  0  0  0  0  0  0  0  0  0
    2.6550   -2.0383   -1.1968 C   0  0  0  0  0  0  0  0  0  0  0  0
    1.3168   -2.1997   -1.2649 O   0  0  0  0  0  0  0  0  0  0  0  0
    3.0651   -0.6081   -0.9615 C   0  0  0  0  0  0  0  0  0  0  0  0
    4.5876   -0.4540   -1.0022 C   0  0  0  0  0  0  0  0  0  0  0  0
    5.1377   -0.7807   -2.4103 C   0  0  0  0  0  0  0  0  0  0  0  0
    5.1879    0.0308   -3.3266 O   0  0  0  0  0  0  0  0  0  0  0  0
    5.5262   -2.0664   -2.5701 O   0  0  0  0  0  0  0  0  0  0  0  0
    5.0004    0.9325   -0.6297 C   0  0  0  0  0  0  0  0  0  0  0  0
    5.7920    0.9335    0.4388 C   0  0  0  0  0  0  0  0  0  0  0  0
    5.9309   -0.4588    0.8520 C   0  0  0  0  0  0  0  0  0  0  0  0
    6.5734   -0.8419    1.8097 O   0  0  0  0  0  0  0  0  0  0  0  0
    5.2058   -1.2481    0.0141 O   0  0  0  0  0  0  0  0  0  0  0  0
    0.7890   -1.3850   -1.1565 H   0  0  0  0  0  0  0  0  0  0  0  0
    2.6775   -0.3228    0.0242 H   0  0  0  0  0  0  0  0  0  0  0  0
    2.5963    0.0154   -1.7321 H   0  0  0  0  0  0  0  0  0  0  0  0
    5.2398   -2.6447   -1.8198 H   0  0  0  0  0  0  0  0  0  0  0  0
    4.7244    1.8160   -1.1908 H   0  0  0  0  0  0  0  0  0  0  0  0
    6.2711    1.7577    0.9363 H   0  0  0  0  0  0  0  0  0  0  0  0
  1  2  2  0  0  0  0
  2  3  1  0  0  0  0
  2  4  1  0  0  0  0
  3 14  1  0  0  0  0
  4  5  1  0  0  0  0
  4 15  1  0  0  0  0
  4 16  1  0  0  0  0
  5  6  1  0  0  0  0
  5  9  1  0  0  0  0
  5 13  1  0  0  0  0
  6  7  2  0  0  0  0
  6  8  1  0  0  0  0
  8 17  1  0  0  0  0
  9 10  2  0  0  0  0
  9 18  1  0  0  0  0
 10 11  1  0  0  0  0
 10 19  1  0  0  0  0
 11 12  2  0  0  0  0
 11 13  1  0  0  0  0
M  END
$$$$
