CHEBI:15881
 OpenBabel04242413243D

 21 20  0  0  0  0  0  0  0  0999 V2000
    4.5140    0.3911   -0.5091 C   0  0  0  0  0  0  0  0  0  0  0  0
    5.6135   -0.4397   -1.1177 C   0  0  0  0  0  0  0  0  0  0  0  0
    5.3674   -1.3098   -1.9549 O   0  0  0  0  0  0  0  0  0  0  0  0
    7.0231   -0.1946   -0.6266 C   0  0  0  0  0  0  0  0  0  0  0  0
    7.3636   -1.1403    0.8891 S   0  0  0  0  0  0  0  0  0  0  0  0
    7.2872   -2.8352    0.2052 C   0  0  0  0  0  0  0  0  0  0  0  0
    7.6405   -3.8398    1.2858 C   0  0  0  0  0  0  0  0  0  0  0  0
    7.5122   -5.4925    0.6255 S   0  0  0  0  0  0  0  0  0  0  0  0
    6.1358   -5.7844    0.2985 O   0  0  0  0  0  0  0  0  0  0  0  0
    8.6021   -5.7402   -0.2882 O   0  0  0  0  0  0  0  0  0  0  0  0
    7.8096   -6.3031    1.9895 O   0  0  0  0  0  0  0  0  0  0  0  0
    3.5658    0.1619   -1.0039 H   0  0  0  0  0  0  0  0  0  0  0  0
    4.7331    1.4519   -0.6530 H   0  0  0  0  0  0  0  0  0  0  0  0
    4.4208    0.1653    0.5556 H   0  0  0  0  0  0  0  0  0  0  0  0
    7.1505    0.8734   -0.4250 H   0  0  0  0  0  0  0  0  0  0  0  0
    7.7366   -0.4634   -1.4117 H   0  0  0  0  0  0  0  0  0  0  0  0
    7.9837   -2.9145   -0.6359 H   0  0  0  0  0  0  0  0  0  0  0  0
    6.2757   -3.0265   -0.1642 H   0  0  0  0  0  0  0  0  0  0  0  0
    6.9497   -3.7785    2.1332 H   0  0  0  0  0  0  0  0  0  0  0  0
    8.6692   -3.7119    1.6387 H   0  0  0  0  0  0  0  0  0  0  0  0
    7.0595   -6.9185    2.1422 H   0  0  0  0  0  0  0  0  0  0  0  0
  1  2  1  0  0  0  0
  1 12  1  0  0  0  0
  1 13  1  0  0  0  0
  1 14  1  0  0  0  0
  2  3  2  0  0  0  0
  2  4  1  0  0  0  0
  4  5  1  0  0  0  0
  4 15  1  0  0  0  0
  4 16  1  0  0  0  0
  5  6  1  0  0  0  0
  6  7  1  0  0  0  0
  6 17  1  0  0  0  0
  6 18  1  0  0  0  0
  7  8  1  0  0  0  0
  7 19  1  0  0  0  0
  7 20  1  0  0  0  0
  8  9  2  0  0  0  0
  8 10  2  0  0  0  0
  8 11  1  0  0  0  0
 11 21  1  0  0  0  0
M  END
$$$$
