CHEBI:15801
 OpenBabel04242413173D

 16 15  0  0  1  0  0  0  0  0999 V2000
    1.4045   -2.2386    0.4818 O   0  0  0  0  0  0  0  0  0  0  0  0
    1.5605   -3.1812    1.3064 C   0  0  0  0  0  0  0  0  0  0  0  0
    0.6727   -3.9332    1.8149 O   0  5  0  0  0  0  0  0  0  0  0  0
    2.9884   -3.4855    1.7722 C   0  0  0  0  0  0  0  0  0  0  0  0
    4.0990   -2.5290    1.3204 C   0  0  0  0  0  0  0  0  0  0  0  0
    5.4647   -2.9185    1.8922 C   0  0  1  0  0  0  0  0  0  0  0  0
    5.8734   -4.2069    1.3536 O   0  0  0  0  0  0  0  0  0  0  0  0
    6.5807   -1.8681    1.5612 C   0  0  0  0  0  0  0  0  0  0  0  0
    7.4849   -2.3221    0.7834 O   0  0  0  0  0  0  0  0  0  0  0  0
    6.5145   -0.7497    2.1425 O   0  5  0  0  0  0  0  0  0  0  0  0
    3.2233   -4.5016    1.4311 H   0  0  0  0  0  0  0  0  0  0  0  0
    2.9710   -3.5120    2.8696 H   0  0  0  0  0  0  0  0  0  0  0  0
    3.8448   -1.5058    1.6213 H   0  0  0  0  0  0  0  0  0  0  0  0
    4.1468   -2.5359    0.2244 H   0  0  0  0  0  0  0  0  0  0  0  0
    5.4145   -3.0280    2.9811 H   0  0  0  0  0  0  0  0  0  0  0  0
    6.6692   -3.9498    0.8264 H   0  0  0  0  0  0  0  0  0  0  0  0
  1  2  2  0  0  0  0
  2  3  1  0  0  0  0
  2  4  1  0  0  0  0
  4  5  1  0  0  0  0
  4 11  1  0  0  0  0
  4 12  1  0  0  0  0
  5  6  1  0  0  0  0
  5 13  1  0  0  0  0
  5 14  1  0  0  0  0
  6  7  1  0  0  0  0
  6  8  1  0  0  0  0
  6 15  1  1  0  0  0
  7 16  1  0  0  0  0
  8  9  2  0  0  0  0
  8 10  1  0  0  0  0
M  CHG  2   3  -1  10  -1
M  END
$$$$
