CHEBI:15419
 OpenBabel04242411503D

 53 56  0  0  1  0  0  0  0  0999 V2000
    1.1346   -1.0073    0.4121 C   0  0  0  0  0  0  0  0  0  0  0  0
    1.8965    0.0331    0.0549 C   0  0  0  0  0  0  0  0  0  0  0  0
    2.9461    0.6800    0.9335 C   0  0  0  0  0  0  0  0  0  0  0  0
    3.4368    1.8852    0.0850 C   0  0  2  0  0  0  0  0  0  0  0  0
    3.2859    1.2918   -1.3379 C   0  0  0  0  0  0  0  0  0  0  0  0
    1.8817    0.7049   -1.2986 C   0  0  1  0  0  0  0  0  0  0  0  0
    0.8734    1.8580   -1.3586 C   0  0  0  0  0  0  0  0  0  0  0  0
    1.0106    2.8151   -0.1682 C   0  0  0  0  0  0  0  0  0  0  0  0
    2.4835    3.1250    0.2221 C   0  0  1  0  0  0  0  0  0  0  0  0
    2.6306    3.9455    1.5894 C   0  0  2  0  0  0  0  0  0  0  0  0
    2.5799    5.4361    1.1501 C   0  0  0  0  0  0  0  0  0  0  0  0
    1.4687    3.7067    2.5989 C   0  0  0  0  0  0  0  0  0  0  0  0
    1.8063    3.9568    4.0762 C   0  0  0  0  0  0  0  0  0  0  0  0
    2.9760    4.9021    4.3169 C   0  0  0  0  0  0  0  0  0  0  0  0
    4.2820    4.4386    3.6183 C   0  0  1  0  0  0  0  0  0  0  0  0
    5.1683    5.6591    3.2870 C   0  0  0  0  0  0  0  0  0  0  0  0
    5.0710    3.5573    4.6221 C   0  0  0  0  0  0  0  0  0  0  0  0
    5.3095    2.3680    4.4685 O   0  0  0  0  0  0  0  0  0  0  0  0
    5.4958    4.2033    5.7333 O   0  0  0  0  0  0  0  0  0  0  0  0
    3.9514    3.5672    2.3407 C   0  0  1  0  0  0  0  0  0  0  0  0
    5.1202    3.4162    1.3687 C   0  0  0  0  0  0  0  0  0  0  0  0
    4.9123    2.2734    0.3674 C   0  0  2  0  0  0  0  0  0  0  0  0
    5.5838    2.6641   -0.8376 O   0  0  0  0  0  0  0  0  0  0  0  0
    1.2181   -1.4530    1.3985 H   0  0  0  0  0  0  0  0  0  0  0  0
    0.4136   -1.4398   -0.2744 H   0  0  0  0  0  0  0  0  0  0  0  0
    3.7573   -0.0377    1.1040 H   0  0  0  0  0  0  0  0  0  0  0  0
    2.5278    0.9704    1.8989 H   0  0  0  0  0  0  0  0  0  0  0  0
    4.0300    0.5036   -1.5184 H   0  0  0  0  0  0  0  0  0  0  0  0
    3.3975    2.0409   -2.1303 H   0  0  0  0  0  0  0  0  0  0  0  0
    1.7225    0.0003   -2.1209 H   0  0  0  0  0  0  0  0  0  0  0  0
   -0.1499    1.4640   -1.3866 H   0  0  0  0  0  0  0  0  0  0  0  0
    1.0176    2.4194   -2.2903 H   0  0  0  0  0  0  0  0  0  0  0  0
    0.4770    3.7470   -0.3892 H   0  0  0  0  0  0  0  0  0  0  0  0
    0.4724    2.3507    0.6624 H   0  0  0  0  0  0  0  0  0  0  0  0
    2.8349    3.7980   -0.5769 H   0  0  0  0  0  0  0  0  0  0  0  0
    1.6799    5.6343    0.5555 H   0  0  0  0  0  0  0  0  0  0  0  0
    3.4405    5.7002    0.5265 H   0  0  0  0  0  0  0  0  0  0  0  0
    2.5466    6.1408    1.9796 H   0  0  0  0  0  0  0  0  0  0  0  0
    1.1314    2.6660    2.5563 H   0  0  0  0  0  0  0  0  0  0  0  0
    0.6001    4.3176    2.3217 H   0  0  0  0  0  0  0  0  0  0  0  0
    0.9138    4.3353    4.5889 H   0  0  0  0  0  0  0  0  0  0  0  0
    2.0356    2.9938    4.5517 H   0  0  0  0  0  0  0  0  0  0  0  0
    3.1157    4.9897    5.4013 H   0  0  0  0  0  0  0  0  0  0  0  0
    2.6932    5.9094    3.9950 H   0  0  0  0  0  0  0  0  0  0  0  0
    4.8017    6.2185    2.4237 H   0  0  0  0  0  0  0  0  0  0  0  0
    6.2014    5.3602    3.0765 H   0  0  0  0  0  0  0  0  0  0  0  0
    5.2089    6.3682    4.1215 H   0  0  0  0  0  0  0  0  0  0  0  0
    5.2508    5.1438    5.7931 H   0  0  0  0  0  0  0  0  0  0  0  0
    3.7725    2.5544    2.7250 H   0  0  0  0  0  0  0  0  0  0  0  0
    6.0507    3.2134    1.9139 H   0  0  0  0  0  0  0  0  0  0  0  0
    5.2993    4.3595    0.8389 H   0  0  0  0  0  0  0  0  0  0  0  0
    5.4533    1.3912    0.7287 H   0  0  0  0  0  0  0  0  0  0  0  0
    5.1155    3.4314   -1.2077 H   0  0  0  0  0  0  0  0  0  0  0  0
  1  2  2  0  0  0  0
  1 24  1  0  0  0  0
  1 25  1  0  0  0  0
  2  3  1  0  0  0  0
  2  6  1  0  0  0  0
  3 26  1  0  0  0  0
  3 27  1  0  0  0  0
  4  3  1  6  0  0  0
  4  5  1  0  0  0  0
  4  9  1  0  0  0  0
  4 22  1  0  0  0  0
  5  6  1  0  0  0  0
  5 28  1  0  0  0  0
  5 29  1  0  0  0  0
  6  7  1  0  0  0  0
  6 30  1  1  0  0  0
  7  8  1  0  0  0  0
  7 31  1  0  0  0  0
  7 32  1  0  0  0  0
  8  9  1  0  0  0  0
  8 33  1  0  0  0  0
  8 34  1  0  0  0  0
  9 10  1  0  0  0  0
  9 35  1  6  0  0  0
 10 12  1  0  0  0  0
 10 20  1  0  0  0  0
 10 11  1  1  0  0  0
 11 36  1  0  0  0  0
 11 37  1  0  0  0  0
 11 38  1  0  0  0  0
 12 13  1  0  0  0  0
 12 39  1  0  0  0  0
 12 40  1  0  0  0  0
 13 14  1  0  0  0  0
 13 41  1  0  0  0  0
 13 42  1  0  0  0  0
 14 15  1  0  0  0  0
 14 43  1  0  0  0  0
 14 44  1  0  0  0  0
 15 20  1  0  0  0  0
 15 17  1  1  0  0  0
 15 16  1  0  0  0  0
 16 45  1  0  0  0  0
 16 46  1  0  0  0  0
 16 47  1  0  0  0  0
 17 18  2  0  0  0  0
 17 19  1  0  0  0  0
 19 48  1  0  0  0  0
 20 21  1  0  0  0  0
 20 49  1  6  0  0  0
 21 22  1  0  0  0  0
 21 50  1  0  0  0  0
 21 51  1  0  0  0  0
 22 23  1  0  0  0  0
 22 52  1  1  0  0  0
 23 53  1  0  0  0  0
M  END
$$$$
