CHEBI:3640
 OpenBabel04242410523D

 23 24  0  0  0  0  0  0  0  0999 V2000
    2.2382    1.1532   -1.0585 N   0  0  0  0  0  0  0  0  0  0  0  0
    2.8209    0.0783    0.0715 S   0  0  0  0  0  0  0  0  0  0  0  0
    1.7135   -0.8048    0.3544 O   0  0  0  0  0  0  0  0  0  0  0  0
    4.0703   -0.4033   -0.4702 O   0  0  0  0  0  0  0  0  0  0  0  0
    3.1981    0.9352    1.5694 C   0  0  0  0  0  0  0  0  0  0  0  0
    3.6579    0.1071    2.6097 C   0  0  0  0  0  0  0  0  0  0  0  0
    3.9903    0.6598    3.8503 C   0  0  0  0  0  0  0  0  0  0  0  0
    3.8737    2.0181    4.1012 C   0  0  0  0  0  0  0  0  0  0  0  0
    3.4219    2.8338    3.0582 C   0  0  0  0  0  0  0  0  0  0  0  0
    3.0833    2.3071    1.7933 C   0  0  0  0  0  0  0  0  0  0  0  0
    2.5578    3.4783    0.6437 Cl  0  0  0  0  0  0  0  0  0  0  0  0
    4.2041    2.5564    5.3427 N   0  0  0  0  0  0  0  0  0  0  0  0
    4.6214    1.7841    6.3860 C   0  0  0  0  0  0  0  0  0  0  0  0
    4.8230    0.5201    6.4557 N   0  0  0  0  0  0  0  0  0  0  0  0
    4.5809   -0.3950    5.1432 S   0  0  0  0  0  0  0  0  0  0  0  0
    5.8628   -0.8837    4.6753 O   0  0  0  0  0  0  0  0  0  0  0  0
    3.4899   -1.3108    5.4123 O   0  0  0  0  0  0  0  0  0  0  0  0
    1.2754    0.9229   -1.3062 H   0  0  0  0  0  0  0  0  0  0  0  0
    2.8669    1.2000   -1.8613 H   0  0  0  0  0  0  0  0  0  0  0  0
    3.7609   -0.9686    2.4565 H   0  0  0  0  0  0  0  0  0  0  0  0
    3.3279    3.9067    3.2228 H   0  0  0  0  0  0  0  0  0  0  0  0
    4.0775    3.5525    5.4832 H   0  0  0  0  0  0  0  0  0  0  0  0
    4.7982    2.3888    7.2921 H   0  0  0  0  0  0  0  0  0  0  0  0
  1  2  1  0  0  0  0
  1 18  1  0  0  0  0
  1 19  1  0  0  0  0
  2  3  2  0  0  0  0
  2  4  2  0  0  0  0
  2  5  1  0  0  0  0
  5  6  1  0  0  0  0
  5 10  2  0  0  0  0
  6  7  2  0  0  0  0
  6 20  1  0  0  0  0
  7  8  1  0  0  0  0
  7 15  1  0  0  0  0
  8  9  2  0  0  0  0
  8 12  1  0  0  0  0
  9 10  1  0  0  0  0
  9 21  1  0  0  0  0
 10 11  1  0  0  0  0
 12 13  1  0  0  0  0
 12 22  1  0  0  0  0
 13 14  2  0  0  0  0
 13 23  1  0  0  0  0
 14 15  1  0  0  0  0
 15 16  2  0  0  0  0
 15 17  2  0  0  0  0
M  END
$$$$
