CHEBI:16829
 OpenBabel04242415213D

 48 52  0  0  1  0  0  0  0  0999 V2000
    2.5947   -1.3482    0.5032 C   0  0  0  0  0  0  0  0  0  0  0  0
    2.8776    0.0204   -0.0290 C   0  0  0  0  0  0  0  0  0  0  0  0
    3.4682    0.3402   -1.1941 C   0  0  0  0  0  0  0  0  0  0  0  0
    3.7090    1.7709   -1.6091 C   0  0  0  0  0  0  0  0  0  0  0  0
    4.5592    1.8364   -2.8046 N   0  0  0  0  0  0  0  0  0  0  0  0
    5.8894    1.1792   -2.6111 C   0  0  1  0  0  0  0  0  0  0  0  0
    6.7940    1.6278   -3.8780 C   0  0  0  0  0  0  0  0  0  0  0  0
    5.9808    1.9253   -5.1482 C   0  0  0  0  0  0  0  0  0  0  0  0
    4.6075    1.6981   -5.1680 C   0  0  0  0  0  0  0  0  0  0  0  0
    4.1010    2.0674   -6.3691 N   0  0  0  0  0  0  0  0  0  0  0  0
    5.1400    2.5127   -7.1691 C   0  0  0  0  0  0  0  0  0  0  0  0
    5.1156    2.9795   -8.4894 C   0  0  0  0  0  0  0  0  0  0  0  0
    6.3278    3.3758   -9.0631 C   0  0  0  0  0  0  0  0  0  0  0  0
    7.5193    3.3105   -8.3442 C   0  0  0  0  0  0  0  0  0  0  0  0
    7.5332    2.8443   -7.0247 C   0  0  0  0  0  0  0  0  0  0  0  0
    6.3277    2.4358   -6.4234 C   0  0  0  0  0  0  0  0  0  0  0  0
    3.9811    1.1068   -3.9722 C   0  0  2  0  0  0  0  0  0  0  0  0
    3.1983   -0.1166   -3.5574 C   0  0  0  0  0  0  0  0  0  0  0  0
    3.9850   -0.6150   -2.2605 C   0  0  1  0  0  0  0  0  0  0  0  0
    5.5919   -0.3803   -2.3216 C   0  0  2  0  0  0  0  0  0  0  0  0
    6.1799   -0.7340   -0.9547 C   0  0  0  0  0  0  0  0  0  0  0  0
    5.8306   -1.7046   -0.2855 O   0  0  0  0  0  0  0  0  0  0  0  0
    6.3325   -1.2984   -3.2879 C   0  0  0  0  0  0  0  0  0  0  0  0
    7.5564   -1.3829   -3.3173 O   0  0  0  0  0  0  0  0  0  0  0  0
    5.5008   -1.9998   -4.0995 O   0  0  0  0  0  0  0  0  0  0  0  0
    6.1670   -2.8438   -5.0408 C   0  0  0  0  0  0  0  0  0  0  0  0
    3.1083   -1.4837    1.4602 H   0  0  0  0  0  0  0  0  0  0  0  0
    2.9121   -2.1517   -0.1638 H   0  0  0  0  0  0  0  0  0  0  0  0
    1.5196   -1.4603    0.6752 H   0  0  0  0  0  0  0  0  0  0  0  0
    2.5634    0.8289    0.6308 H   0  0  0  0  0  0  0  0  0  0  0  0
    4.1846    2.3306   -0.7947 H   0  0  0  0  0  0  0  0  0  0  0  0
    2.7531    2.2645   -1.8229 H   0  0  0  0  0  0  0  0  0  0  0  0
    6.3740    1.6293   -1.7347 H   0  0  0  0  0  0  0  0  0  0  0  0
    7.5839    0.9066   -4.0947 H   0  0  0  0  0  0  0  0  0  0  0  0
    7.2866    2.5708   -3.6039 H   0  0  0  0  0  0  0  0  0  0  0  0
    3.1323    2.0237   -6.6535 H   0  0  0  0  0  0  0  0  0  0  0  0
    4.1906    3.0360   -9.0536 H   0  0  0  0  0  0  0  0  0  0  0  0
    6.3390    3.7429  -10.0868 H   0  0  0  0  0  0  0  0  0  0  0  0
    8.4494    3.6257   -8.8103 H   0  0  0  0  0  0  0  0  0  0  0  0
    8.4663    2.7978   -6.4717 H   0  0  0  0  0  0  0  0  0  0  0  0
    4.7098    0.3235   -4.2429 H   0  0  0  0  0  0  0  0  0  0  0  0
    3.1775   -0.8991   -4.3283 H   0  0  0  0  0  0  0  0  0  0  0  0
    2.1514    0.1257   -3.3355 H   0  0  0  0  0  0  0  0  0  0  0  0
    3.7389   -1.6613   -2.0623 H   0  0  0  0  0  0  0  0  0  0  0  0
    7.0440   -0.1309   -0.6257 H   0  0  0  0  0  0  0  0  0  0  0  0
    5.4055   -3.3305   -5.6563 H   0  0  0  0  0  0  0  0  0  0  0  0
    6.7405   -3.6172   -4.5207 H   0  0  0  0  0  0  0  0  0  0  0  0
    6.8146   -2.2519   -5.6954 H   0  0  0  0  0  0  0  0  0  0  0  0
  1  2  1  0  0  0  0
  1 27  1  0  0  0  0
  1 28  1  0  0  0  0
  1 29  1  0  0  0  0
  2  3  2  0  0  0  0
  2 30  1  0  0  0  0
  3  4  1  0  0  0  0
  3 19  1  0  0  0  0
  4  5  1  0  0  0  0
  4 31  1  0  0  0  0
  4 32  1  0  0  0  0
  5  6  1  0  0  0  0
  5 17  1  0  0  0  0
  6  7  1  0  0  0  0
  6 20  1  0  0  0  0
  6 33  1  6  0  0  0
  7  8  1  0  0  0  0
  7 34  1  0  0  0  0
  7 35  1  0  0  0  0
  8  9  2  0  0  0  0
  8 16  1  0  0  0  0
  9 10  1  0  0  0  0
  9 17  1  0  0  0  0
 10 11  1  0  0  0  0
 10 36  1  0  0  0  0
 11 12  1  0  0  0  0
 11 16  2  0  0  0  0
 12 13  2  0  0  0  0
 12 37  1  0  0  0  0
 13 14  1  0  0  0  0
 13 38  1  0  0  0  0
 14 15  2  0  0  0  0
 14 39  1  0  0  0  0
 15 16  1  0  0  0  0
 15 40  1  0  0  0  0
 17 18  1  0  0  0  0
 17 41  1  1  0  0  0
 18 19  1  0  0  0  0
 18 42  1  0  0  0  0
 18 43  1  0  0  0  0
 19 20  1  0  0  0  0
 19 44  1  1  0  0  0
 20 23  1  6  0  0  0
 20 21  1  0  0  0  0
 21 22  2  0  0  0  0
 21 45  1  0  0  0  0
 23 24  2  0  0  0  0
 23 25  1  0  0  0  0
 25 26  1  0  0  0  0
 26 46  1  0  0  0  0
 26 47  1  0  0  0  0
 26 48  1  0  0  0  0
M  END
$$$$
