CHEBI:16370
 OpenBabel04242414153D

 17 17  0  0  0  0  0  0  0  0999 V2000
    0.9636    0.1518   -0.1905 O   0  0  0  0  0  0  0  0  0  0  0  0
    2.1805    0.0679   -0.0333 C   0  0  0  0  0  0  0  0  0  0  0  0
    2.9899    1.3047   -0.1123 C   0  0  0  0  0  0  0  0  0  0  0  0
    4.3159    1.2632    0.0590 C   0  0  0  0  0  0  0  0  0  0  0  0
    5.0894    2.4059    0.0340 O   0  0  0  0  0  0  0  0  0  0  0  0
    5.0954   -0.0029    0.2878 C   0  0  0  0  0  0  0  0  0  0  0  0
    4.3203   -1.2713   -0.0812 C   0  0  0  0  0  0  0  0  0  0  0  0
    4.4299   -1.5457   -1.4812 O   0  0  0  0  0  0  0  0  0  0  0  0
    2.8539   -1.2347    0.3272 C   0  0  0  0  0  0  0  0  0  0  0  0
    2.4367    2.2200   -0.2829 H   0  0  0  0  0  0  0  0  0  0  0  0
    4.5201    3.1881   -0.0778 H   0  0  0  0  0  0  0  0  0  0  0  0
    5.3745   -0.0385    1.3477 H   0  0  0  0  0  0  0  0  0  0  0  0
    6.0208    0.0374   -0.3001 H   0  0  0  0  0  0  0  0  0  0  0  0
    4.7966   -2.1243    0.4159 H   0  0  0  0  0  0  0  0  0  0  0  0
    4.2426   -0.7319   -1.9805 H   0  0  0  0  0  0  0  0  0  0  0  0
    2.7558   -1.3616    1.4109 H   0  0  0  0  0  0  0  0  0  0  0  0
    2.3090   -2.0412   -0.1769 H   0  0  0  0  0  0  0  0  0  0  0  0
  1  2  2  0  0  0  0
  2  3  1  0  0  0  0
  2  9  1  0  0  0  0
  3  4  2  0  0  0  0
  3 10  1  0  0  0  0
  4  5  1  0  0  0  0
  4  6  1  0  0  0  0
  5 11  1  0  0  0  0
  6  7  1  0  0  0  0
  6 12  1  0  0  0  0
  6 13  1  0  0  0  0
  7  8  1  0  0  0  0
  7  9  1  0  0  0  0
  7 14  1  0  0  0  0
  8 15  1  0  0  0  0
  9 16  1  0  0  0  0
  9 17  1  0  0  0  0
M  END
$$$$
