CHEBI:16760
 OpenBabel04242415103D

 26 28  0  0  0  0  0  0  0  0999 V2000
    1.0106    0.0597    0.1694 O   0  0  0  0  0  0  0  0  0  0  0  0
    2.3804    0.0156    0.1413 C   0  0  0  0  0  0  0  0  0  0  0  0
    3.0629   -1.1832    0.1193 C   0  0  0  0  0  0  0  0  0  0  0  0
    4.4531   -1.1501    0.1032 C   0  0  0  0  0  0  0  0  0  0  0  0
    5.1634    0.0668    0.1026 C   0  0  0  0  0  0  0  0  0  0  0  0
    6.5581    0.0119    0.0964 C   0  0  0  0  0  0  0  0  0  0  0  0
    7.3222    1.1725    0.0946 C   0  0  0  0  0  0  0  0  0  0  0  0
    6.7152    2.4278    0.0870 C   0  0  0  0  0  0  0  0  0  0  0  0
    7.5324    3.5723    0.0735 C   0  0  0  0  0  0  0  0  0  0  0  0
    6.9824    4.8493    0.0524 C   0  0  0  0  0  0  0  0  0  0  0  0
    5.6060    4.9928    0.0447 C   0  0  0  0  0  0  0  0  0  0  0  0
    4.7859    3.8589    0.0640 C   0  0  0  0  0  0  0  0  0  0  0  0
    5.2985    2.5352    0.0890 C   0  0  0  0  0  0  0  0  0  0  0  0
    4.4904    1.3224    0.1097 C   0  0  0  0  0  0  0  0  0  0  0  0
    3.0678    1.2382    0.1381 C   0  0  0  0  0  0  0  0  0  0  0  0
    2.2731    2.3605    0.1746 O   0  0  0  0  0  0  0  0  0  0  0  0
    0.6781   -0.8546    0.1597 H   0  0  0  0  0  0  0  0  0  0  0  0
    2.5476   -2.1373    0.1190 H   0  0  0  0  0  0  0  0  0  0  0  0
    4.9911   -2.0971    0.0912 H   0  0  0  0  0  0  0  0  0  0  0  0
    7.0766   -0.9451    0.0955 H   0  0  0  0  0  0  0  0  0  0  0  0
    8.4063    1.0814    0.0935 H   0  0  0  0  0  0  0  0  0  0  0  0
    8.6162    3.4758    0.0764 H   0  0  0  0  0  0  0  0  0  0  0  0
    7.6261    5.7238    0.0391 H   0  0  0  0  0  0  0  0  0  0  0  0
    5.1572    5.9822    0.0228 H   0  0  0  0  0  0  0  0  0  0  0  0
    3.7159    4.0390    0.0525 H   0  0  0  0  0  0  0  0  0  0  0  0
    1.3576    2.0170    0.2043 H   0  0  0  0  0  0  0  0  0  0  0  0
  1  2  1  0  0  0  0
  1 17  1  0  0  0  0
  2  3  1  0  0  0  0
  2 15  2  0  0  0  0
  3  4  2  0  0  0  0
  3 18  1  0  0  0  0
  4  5  1  0  0  0  0
  4 19  1  0  0  0  0
  5  6  1  0  0  0  0
  5 14  2  0  0  0  0
  6  7  2  0  0  0  0
  6 20  1  0  0  0  0
  7  8  1  0  0  0  0
  7 21  1  0  0  0  0
  8  9  1  0  0  0  0
  8 13  2  0  0  0  0
  9 10  2  0  0  0  0
  9 22  1  0  0  0  0
 10 11  1  0  0  0  0
 10 23  1  0  0  0  0
 11 12  2  0  0  0  0
 11 24  1  0  0  0  0
 12 13  1  0  0  0  0
 12 25  1  0  0  0  0
 13 14  1  0  0  0  0
 14 15  1  0  0  0  0
 15 16  1  0  0  0  0
 16 26  1  0  0  0  0
M  END
$$$$
