CHEBI:16867
 OpenBabel04242415283D

 20 19  0  0  1  0  0  0  0  0999 V2000
    0.8970    1.0582    0.4880 C   0  0  0  0  0  0  0  0  0  0  0  0
    1.8071    1.5503   -0.9973 S   0  0  0  0  0  0  0  0  0  0  0  0
    3.4964    1.4973   -0.3128 C   0  0  0  0  0  0  0  0  0  0  0  0
    4.5591    1.9176   -1.3352 C   0  0  0  0  0  0  0  0  0  0  0  0
    4.6082    3.4061   -1.7108 C   0  0  1  0  0  0  0  0  0  0  0  0
    3.4140    3.8831   -2.4659 N   0  0  0  0  0  0  0  0  0  0  0  0
    4.7993    4.3060   -0.4777 C   0  0  0  0  0  0  0  0  0  0  0  0
    5.5244    4.0604    0.4726 O   0  0  0  0  0  0  0  0  0  0  0  0
    4.0610    5.4418   -0.5858 O   0  0  0  0  0  0  0  0  0  0  0  0
   -0.1717    1.0288    0.2600 H   0  0  0  0  0  0  0  0  0  0  0  0
    1.0616    1.7817    1.2905 H   0  0  0  0  0  0  0  0  0  0  0  0
    1.2108    0.0639    0.8157 H   0  0  0  0  0  0  0  0  0  0  0  0
    3.6963    0.4649   -0.0059 H   0  0  0  0  0  0  0  0  0  0  0  0
    3.5429    2.1258    0.5812 H   0  0  0  0  0  0  0  0  0  0  0  0
    4.4630    1.3116   -2.2457 H   0  0  0  0  0  0  0  0  0  0  0  0
    5.5358    1.6538   -0.9066 H   0  0  0  0  0  0  0  0  0  0  0  0
    5.4800    3.5853   -2.3513 H   0  0  0  0  0  0  0  0  0  0  0  0
    2.5820    3.4583   -2.0255 H   0  0  0  0  0  0  0  0  0  0  0  0
    3.4279    3.4278   -3.3843 H   0  0  0  0  0  0  0  0  0  0  0  0
    3.5705    5.3566   -1.4438 H   0  0  0  0  0  0  0  0  0  0  0  0
  1  2  1  0  0  0  0
  1 10  1  0  0  0  0
  1 11  1  0  0  0  0
  1 12  1  0  0  0  0
  2  3  1  0  0  0  0
  3  4  1  0  0  0  0
  3 13  1  0  0  0  0
  3 14  1  0  0  0  0
  4  5  1  0  0  0  0
  4 15  1  0  0  0  0
  4 16  1  0  0  0  0
  5  6  1  0  0  0  0
  5  7  1  0  0  0  0
  5 17  1  6  0  0  0
  6 18  1  0  0  0  0
  6 19  1  0  0  0  0
  7  8  2  0  0  0  0
  7  9  1  0  0  0  0
  9 20  1  0  0  0  0
M  END
$$$$
