CHEBI:19982
 OpenBabel04252409373D

  9  8  0  0  0  0  0  0  0  0999 V2000
    1.3359   -0.3361    0.5085 O   0  0  0  0  0  0  0  0  0  0  0  0
    2.4323    0.0320    0.1236 C   0  0  0  0  0  0  0  0  0  0  0  0
    3.1292    1.0242    0.7079 O   0  0  0  0  0  0  0  0  0  0  0  0
    3.0793   -0.5508   -1.0586 C   0  0  0  0  0  0  0  0  0  0  0  0
    4.3978   -0.7404   -1.1406 C   0  0  0  0  0  0  0  0  0  0  0  0
    5.1342   -1.4712   -2.5053 Cl  0  0  0  0  0  0  0  0  0  0  0  0
    3.8852    1.3583    0.1923 H   0  0  0  0  0  0  0  0  0  0  0  0
    2.4004   -0.9025   -1.8276 H   0  0  0  0  0  0  0  0  0  0  0  0
    5.1223   -0.4877   -0.3770 H   0  0  0  0  0  0  0  0  0  0  0  0
  1  2  2  0  0  0  0
  2  3  1  0  0  0  0
  2  4  1  0  0  0  0
  3  7  1  0  0  0  0
  4  5  2  0  0  0  0
  4  8  1  0  0  0  0
  5  6  1  0  0  0  0
  5  9  1  0  0  0  0
M  END
$$$$
