CHEBI:17308
 OpenBabel04242416143D

 19 18  0  0  0  0  0  0  0  0999 V2000
    0.5735   -0.0005    0.2494 C   0  0  0  0  0  0  0  0  0  0  0  0
    2.0408   -0.2283   -0.0793 C   0  0  0  0  0  0  0  0  0  0  0  0
    2.9464    0.2242    1.0692 C   0  0  0  0  0  0  0  0  0  0  0  0
    4.4304    0.0375    0.7560 C   0  0  0  0  0  0  0  0  0  0  0  0
    4.8699   -1.4062    0.7870 C   0  0  0  0  0  0  0  0  0  0  0  0
    4.1828   -2.3748    1.0998 O   0  0  0  0  0  0  0  0  0  0  0  0
    6.3212   -1.6834    0.4040 C   0  0  0  0  0  0  0  0  0  0  0  0
    7.1140   -0.8130    0.1100 O   0  0  0  0  0  0  0  0  0  0  0  0
    6.5717   -3.0060    0.4419 O   0  0  0  0  0  0  0  0  0  0  0  0
   -0.0572   -0.3396   -0.5783 H   0  0  0  0  0  0  0  0  0  0  0  0
    0.3697    1.0615    0.4188 H   0  0  0  0  0  0  0  0  0  0  0  0
    0.2821   -0.5545    1.1475 H   0  0  0  0  0  0  0  0  0  0  0  0
    2.2939    0.3233   -0.9921 H   0  0  0  0  0  0  0  0  0  0  0  0
    2.1944   -1.2916   -0.2921 H   0  0  0  0  0  0  0  0  0  0  0  0
    2.6828   -0.3166    1.9862 H   0  0  0  0  0  0  0  0  0  0  0  0
    2.7652    1.2888    1.2630 H   0  0  0  0  0  0  0  0  0  0  0  0
    5.0199    0.5717    1.5099 H   0  0  0  0  0  0  0  0  0  0  0  0
    4.6637    0.4583   -0.2280 H   0  0  0  0  0  0  0  0  0  0  0  0
    5.7511   -3.4796    0.7193 H   0  0  0  0  0  0  0  0  0  0  0  0
  1  2  1  0  0  0  0
  1 10  1  0  0  0  0
  1 11  1  0  0  0  0
  1 12  1  0  0  0  0
  2  3  1  0  0  0  0
  2 13  1  0  0  0  0
  2 14  1  0  0  0  0
  3  4  1  0  0  0  0
  3 15  1  0  0  0  0
  3 16  1  0  0  0  0
  4  5  1  0  0  0  0
  4 17  1  0  0  0  0
  4 18  1  0  0  0  0
  5  6  2  0  0  0  0
  5  7  1  0  0  0  0
  7  8  2  0  0  0  0
  7  9  1  0  0  0  0
  9 19  1  0  0  0  0
M  END
$$$$
