CHEBI:17694
 OpenBabel04242417073D

 29 28  0  0  0  0  0  0  0  0999 V2000
    1.5407   -4.0206    1.9621 N   0  0  0  0  0  0  0  0  0  0  0  0
    2.6145   -3.1849    1.8607 C   0  0  0  0  0  0  0  0  0  0  0  0
    2.4953   -1.9810    2.0463 O   0  0  0  0  0  0  0  0  0  0  0  0
    3.9092   -3.8843    1.5058 C   0  0  0  0  0  0  0  0  0  0  0  0
    5.0815   -2.9103    1.4078 C   0  0  0  0  0  0  0  0  0  0  0  0
    6.3750   -3.6323    1.0223 C   0  0  0  0  0  0  0  0  0  0  0  0
    7.5497   -2.6488    0.9191 C   0  0  0  0  0  0  0  0  0  0  0  0
    8.9021   -3.3168    0.6073 C   0  0  0  0  0  0  0  0  0  0  0  0
    8.8701   -4.1231   -1.0450 S   0  0  0  0  0  0  0  0  0  0  0  0
   10.0815   -2.3226    0.6119 C   0  0  0  0  0  0  0  0  0  0  0  0
   10.3427   -1.5955    1.9340 C   0  0  0  0  0  0  0  0  0  0  0  0
   10.7724   -2.7144    3.2978 S   0  0  0  0  0  0  0  0  0  0  0  0
    0.6462   -3.6111    2.1982 H   0  0  0  0  0  0  0  0  0  0  0  0
    1.6006   -5.0187    1.8204 H   0  0  0  0  0  0  0  0  0  0  0  0
    3.7680   -4.3978    0.5475 H   0  0  0  0  0  0  0  0  0  0  0  0
    4.1136   -4.6396    2.2735 H   0  0  0  0  0  0  0  0  0  0  0  0
    5.2147   -2.3964    2.3680 H   0  0  0  0  0  0  0  0  0  0  0  0
    4.8567   -2.1359    0.6638 H   0  0  0  0  0  0  0  0  0  0  0  0
    6.2188   -4.1481    0.0690 H   0  0  0  0  0  0  0  0  0  0  0  0
    6.6050   -4.3978    1.7733 H   0  0  0  0  0  0  0  0  0  0  0  0
    7.6211   -2.1265    1.8799 H   0  0  0  0  0  0  0  0  0  0  0  0
    7.3250   -1.8814    0.1670 H   0  0  0  0  0  0  0  0  0  0  0  0
    9.0865   -4.1168    1.3316 H   0  0  0  0  0  0  0  0  0  0  0  0
    8.5813   -3.0209   -1.7533 H   0  0  0  0  0  0  0  0  0  0  0  0
    9.9086   -1.5532   -0.1533 H   0  0  0  0  0  0  0  0  0  0  0  0
   11.0047   -2.8424    0.3193 H   0  0  0  0  0  0  0  0  0  0  0  0
    9.4785   -0.9955    2.2313 H   0  0  0  0  0  0  0  0  0  0  0  0
   11.1797   -0.9015    1.8015 H   0  0  0  0  0  0  0  0  0  0  0  0
   11.9586   -3.1079    2.8096 H   0  0  0  0  0  0  0  0  0  0  0  0
  1  2  1  0  0  0  0
  1 13  1  0  0  0  0
  1 14  1  0  0  0  0
  2  3  2  0  0  0  0
  2  4  1  0  0  0  0
  4  5  1  0  0  0  0
  4 15  1  0  0  0  0
  4 16  1  0  0  0  0
  5  6  1  0  0  0  0
  5 17  1  0  0  0  0
  5 18  1  0  0  0  0
  6  7  1  0  0  0  0
  6 19  1  0  0  0  0
  6 20  1  0  0  0  0
  7  8  1  0  0  0  0
  7 21  1  0  0  0  0
  7 22  1  0  0  0  0
  8  9  1  0  0  0  0
  8 10  1  0  0  0  0
  8 23  1  0  0  0  0
  9 24  1  0  0  0  0
 10 11  1  0  0  0  0
 10 25  1  0  0  0  0
 10 26  1  0  0  0  0
 11 12  1  0  0  0  0
 11 27  1  0  0  0  0
 11 28  1  0  0  0  0
 12 29  1  0  0  0  0
M  END
$$$$
