CHEBI:15366
 OpenBabel04242411453D

  8  7  0  0  0  0  0  0  0  0999 V2000
    1.0790   -0.0881   -0.0594 C   0  0  0  0  0  0  0  0  0  0  0  0
    2.5746   -0.0101   -0.1122 C   0  0  0  0  0  0  0  0  0  0  0  0
    3.1988    0.8582   -0.6999 O   0  0  0  0  0  0  0  0  0  0  0  0
    3.1754   -1.0126    0.5663 O   0  0  0  0  0  0  0  0  0  0  0  0
    0.6528    0.7461   -0.6240 H   0  0  0  0  0  0  0  0  0  0  0  0
    0.7401   -0.0155    0.9770 H   0  0  0  0  0  0  0  0  0  0  0  0
    0.7401   -1.0233   -0.5120 H   0  0  0  0  0  0  0  0  0  0  0  0
    2.5485   -1.6318    0.9854 H   0  0  0  0  0  0  0  0  0  0  0  0
  1  2  1  0  0  0  0
  1  5  1  0  0  0  0
  1  6  1  0  0  0  0
  1  7  1  0  0  0  0
  2  3  2  0  0  0  0
  2  4  1  0  0  0  0
  4  8  1  0  0  0  0
M  END
$$$$
