CHEBI:16369
 OpenBabel04242414153D

 21 20  0  0  1  0  0  0  0  0999 V2000
    5.8100   -2.4644    4.4189 O   0  0  0  0  0  0  0  0  0  0  0  0
    4.8147   -3.0207    3.9986 C   0  0  0  0  0  0  0  0  0  0  0  0
    4.2003   -4.0775    4.5557 O   0  0  0  0  0  0  0  0  0  0  0  0
    4.1007   -2.5906    2.7192 C   0  0  0  0  0  0  0  0  0  0  0  0
    3.1312   -3.2580    2.3673 O   0  0  0  0  0  0  0  0  0  0  0  0
    4.5867   -1.3471    2.0186 C   0  0  0  0  0  0  0  0  0  0  0  0
    6.0596   -1.4567    1.6122 C   0  0  2  0  0  0  0  0  0  0  0  0
    6.8585   -0.8129    2.6244 O   0  0  0  0  0  0  0  0  0  0  0  0
    6.3303   -0.6951    0.3038 C   0  0  1  0  0  0  0  0  0  0  0  0
    6.4012    0.7182    0.5762 O   0  0  0  0  0  0  0  0  0  0  0  0
    7.6459   -1.1476   -0.3271 C   0  0  0  0  0  0  0  0  0  0  0  0
    7.9821   -2.3104   -0.4889 O   0  0  0  0  0  0  0  0  0  0  0  0
    8.3878   -0.0897   -0.7454 O   0  0  0  0  0  0  0  0  0  0  0  0
    3.4253   -4.3401    4.0031 H   0  0  0  0  0  0  0  0  0  0  0  0
    4.4020   -0.4909    2.6768 H   0  0  0  0  0  0  0  0  0  0  0  0
    3.9500   -1.2352    1.1329 H   0  0  0  0  0  0  0  0  0  0  0  0
    6.3758   -2.5027    1.5306 H   0  0  0  0  0  0  0  0  0  0  0  0
    6.8255   -1.3678    3.4378 H   0  0  0  0  0  0  0  0  0  0  0  0
    5.5512   -0.8612   -0.4475 H   0  0  0  0  0  0  0  0  0  0  0  0
    6.7622    0.7657    1.4928 H   0  0  0  0  0  0  0  0  0  0  0  0
    7.8999    0.7359   -0.5133 H   0  0  0  0  0  0  0  0  0  0  0  0
  1  2  2  0  0  0  0
  2  3  1  0  0  0  0
  2  4  1  0  0  0  0
  3 14  1  0  0  0  0
  4  5  2  0  0  0  0
  4  6  1  0  0  0  0
  6 15  1  0  0  0  0
  6 16  1  0  0  0  0
  7  9  1  0  0  0  0
  7  8  1  0  0  0  0
  7  6  1  0  0  0  0
  7 17  1  6  0  0  0
  8 18  1  0  0  0  0
  9 10  1  0  0  0  0
  9 11  1  0  0  0  0
  9 19  1  6  0  0  0
 10 20  1  0  0  0  0
 11 12  2  0  0  0  0
 11 13  1  0  0  0  0
 13 21  1  0  0  0  0
M  END
$$$$
