CHEBI:16283
 OpenBabel04242414073D

 26 25  0  0  1  0  0  0  0  0999 V2000
    8.3998   -2.6481   -1.8886 N   0  0  0  0  0  0  0  0  0  0  0  0
    8.0973   -4.0605   -2.2886 C   0  0  1  0  0  0  0  0  0  0  0  0
    8.4546   -4.3557   -3.7491 C   0  0  0  0  0  0  0  0  0  0  0  0
    7.4016   -3.4868   -4.9727 S   0  0  0  0  0  0  0  0  0  0  0  0
    5.5020   -4.1569   -4.5386 S   0  0  0  0  0  0  0  0  0  0  0  0
    5.5410   -5.9292   -5.0148 C   0  0  0  0  0  0  0  0  0  0  0  0
    5.9278   -6.1846   -6.4753 C   0  0  2  0  0  0  0  0  0  0  0  0
    4.9537   -5.5986   -7.4530 N   0  0  0  0  0  0  0  0  0  0  0  0
    5.9825   -7.7013   -6.6855 C   0  0  0  0  0  0  0  0  0  0  0  0
    6.7355   -8.4602   -6.0958 O   0  0  0  0  0  0  0  0  0  0  0  0
    5.0700   -8.1121   -7.6021 O   0  0  0  0  0  0  0  0  0  0  0  0
    8.9198   -5.0093   -1.4115 C   0  0  0  0  0  0  0  0  0  0  0  0
    8.8130   -6.2250   -1.4121 O   0  0  0  0  0  0  0  0  0  0  0  0
    9.8112   -4.3342   -0.6427 O   0  0  0  0  0  0  0  0  0  0  0  0
    8.1025   -2.0428   -2.6632 H   0  0  0  0  0  0  0  0  0  0  0  0
    7.7557   -2.3991   -1.1287 H   0  0  0  0  0  0  0  0  0  0  0  0
    7.0438   -4.2603   -2.0690 H   0  0  0  0  0  0  0  0  0  0  0  0
    8.4044   -5.4288   -3.9640 H   0  0  0  0  0  0  0  0  0  0  0  0
    9.4913   -4.0583   -3.9497 H   0  0  0  0  0  0  0  0  0  0  0  0
    4.5424   -6.3355   -4.8131 H   0  0  0  0  0  0  0  0  0  0  0  0
    6.2213   -6.4477   -4.3299 H   0  0  0  0  0  0  0  0  0  0  0  0
    6.9245   -5.7965   -6.7089 H   0  0  0  0  0  0  0  0  0  0  0  0
    4.6342   -4.7036   -7.0625 H   0  0  0  0  0  0  0  0  0  0  0  0
    5.4859   -5.3180   -8.2850 H   0  0  0  0  0  0  0  0  0  0  0  0
    4.5850   -7.2957   -7.8846 H   0  0  0  0  0  0  0  0  0  0  0  0
    9.6959   -3.3768   -0.8681 H   0  0  0  0  0  0  0  0  0  0  0  0
  1  2  1  0  0  0  0
  1 15  1  0  0  0  0
  1 16  1  0  0  0  0
  2  3  1  0  0  0  0
  2 12  1  0  0  0  0
  2 17  1  1  0  0  0
  3  4  1  0  0  0  0
  3 18  1  0  0  0  0
  3 19  1  0  0  0  0
  4  5  1  0  0  0  0
  5  6  1  0  0  0  0
  6 20  1  0  0  0  0
  6 21  1  0  0  0  0
  7  9  1  0  0  0  0
  7  8  1  0  0  0  0
  7  6  1  0  0  0  0
  7 22  1  6  0  0  0
  8 23  1  0  0  0  0
  8 24  1  0  0  0  0
  9 10  2  0  0  0  0
  9 11  1  0  0  0  0
 11 25  1  0  0  0  0
 12 13  2  0  0  0  0
 12 14  1  0  0  0  0
 14 26  1  0  0  0  0
M  END
$$$$
