CHEBI:15517
 OpenBabel04242412303D

 95 97  0  0  1  0  0  0  0  0999 V2000
   18.8399    1.3479   -0.1302 C   0  0  0  0  0  0  0  0  0  0  0  0
   20.2302    1.3760   -0.7446 C   0  0  0  0  0  0  0  0  0  0  0  0
   20.1979    1.8914   -2.1816 C   0  0  0  0  0  0  0  0  0  0  0  0
   21.5971    1.9932   -2.7543 C   0  0  0  0  0  0  0  0  0  0  0  0
   22.5416    2.4756   -2.1486 O   0  0  0  0  0  0  0  0  0  0  0  0
   21.7638    1.3785   -4.3979 S   0  0  0  0  0  0  0  0  0  0  0  0
   23.3795    2.1040   -4.8584 C   0  0  0  0  0  0  0  0  0  0  0  0
   24.5807    1.3971   -4.2217 C   0  0  0  0  0  0  0  0  0  0  0  0
   24.5970   -0.0333   -4.4852 N   0  0  0  0  0  0  0  0  0  0  0  0
   25.3785   -0.6059   -5.4618 C   0  0  0  0  0  0  0  0  0  0  0  0
   26.1545    0.0270   -6.1679 O   0  0  0  0  0  0  0  0  0  0  0  0
   25.1735   -2.0979   -5.6047 C   0  0  0  0  0  0  0  0  0  0  0  0
   26.5068   -2.8297   -5.6260 C   0  0  0  0  0  0  0  0  0  0  0  0
   26.3066   -4.2735   -5.5808 N   0  0  0  0  0  0  0  0  0  0  0  0
   27.2493   -5.1441   -6.0909 C   0  0  0  0  0  0  0  0  0  0  0  0
   28.2597   -4.7876   -6.6917 O   0  0  0  0  0  0  0  0  0  0  0  0
   26.9465   -6.6401   -5.8482 C   0  0  2  0  0  0  0  0  0  0  0  0
   28.1826   -7.3185   -5.6089 O   0  0  0  0  0  0  0  0  0  0  0  0
   26.1562   -7.3274   -7.0012 C   0  0  0  0  0  0  0  0  0  0  0  0
   27.0060   -7.4343   -8.2851 C   0  0  0  0  0  0  0  0  0  0  0  0
   25.8004   -8.7670   -6.5622 C   0  0  0  0  0  0  0  0  0  0  0  0
   24.8513   -6.5534   -7.2981 C   0  0  0  0  0  0  0  0  0  0  0  0
   24.1384   -7.1304   -8.3819 O   0  0  0  0  0  0  0  0  0  0  0  0
   22.6462   -6.6035   -8.6668 P   0  0  0  0  0  0  0  0  0  0  0  0
   21.5983   -7.1934   -7.7851 O   0  0  0  0  0  0  0  0  0  0  0  0
   22.7623   -5.0134   -8.4795 O   0  0  0  0  0  0  0  0  0  0  0  0
   22.4499   -6.7905  -10.2294 O   0  0  0  0  0  0  0  0  0  0  0  0
   21.3451   -6.0128  -11.0552 P   0  0  0  0  0  0  0  0  0  0  0  0
   20.4617   -5.1149  -10.2496 O   0  0  0  0  0  0  0  0  0  0  0  0
   22.2149   -5.1779  -12.1109 O   0  0  0  0  0  0  0  0  0  0  0  0
   20.6176   -7.0844  -11.9980 O   0  0  0  0  0  0  0  0  0  0  0  0
   19.3627   -7.6114  -11.6094 C   0  0  0  0  0  0  0  0  0  0  0  0
   19.4725   -8.6615  -10.5076 C   0  0  1  0  0  0  0  0  0  0  0  0
   18.1665   -9.1691  -10.1726 O   0  0  0  0  0  0  0  0  0  0  0  0
   18.3709  -10.4803   -9.5975 C   0  0  1  0  0  0  0  0  0  0  0  0
   17.3677  -11.3932  -10.1070 N   0  0  0  0  0  0  0  0  0  0  0  0
   16.3974  -11.9930   -9.3435 C   0  0  0  0  0  0  0  0  0  0  0  0
   15.6863  -12.8583  -10.0349 N   0  0  0  0  0  0  0  0  0  0  0  0
   16.2207  -12.8141  -11.3057 C   0  0  0  0  0  0  0  0  0  0  0  0
   15.9142  -13.5128  -12.4861 C   0  0  0  0  0  0  0  0  0  0  0  0
   14.9187  -14.4793  -12.5620 N   0  0  0  0  0  0  0  0  0  0  0  0
   16.6147  -13.2273  -13.6066 N   0  0  0  0  0  0  0  0  0  0  0  0
   17.5976  -12.3051  -13.5284 C   0  0  0  0  0  0  0  0  0  0  0  0
   17.9963  -11.5942  -12.4539 N   0  0  0  0  0  0  0  0  0  0  0  0
   17.2555  -11.8940  -11.3753 C   0  0  0  0  0  0  0  0  0  0  0  0
   19.8245  -10.9041   -9.8672 C   0  0  2  0  0  0  0  0  0  0  0  0
   20.5835  -10.7872   -8.6535 O   0  0  0  0  0  0  0  0  0  0  0  0
   20.2876   -9.8859  -10.9051 C   0  0  2  0  0  0  0  0  0  0  0  0
   21.6811   -9.6361  -10.9171 O   0  0  0  0  0  0  0  0  0  0  0  0
   22.6757  -10.8268  -11.2966 P   0  0  0  0  0  0  0  0  0  0  0  0
   23.9503  -10.4859  -11.9783 O   0  0  0  0  0  0  0  0  0  0  0  0
   22.9432  -11.4873   -9.8618 O   0  0  0  0  0  0  0  0  0  0  0  0
   21.8131  -11.9721  -11.9891 O   0  0  0  0  0  0  0  0  0  0  0  0
   18.8822    0.9427    0.8858 H   0  0  0  0  0  0  0  0  0  0  0  0
   18.1611    0.7218   -0.7178 H   0  0  0  0  0  0  0  0  0  0  0  0
   18.4170    2.3562   -0.0753 H   0  0  0  0  0  0  0  0  0  0  0  0
   20.6577    0.3662   -0.7251 H   0  0  0  0  0  0  0  0  0  0  0  0
   20.8816    2.0055   -0.1271 H   0  0  0  0  0  0  0  0  0  0  0  0
   19.7519    2.8917   -2.2243 H   0  0  0  0  0  0  0  0  0  0  0  0
   19.5752    1.2256   -2.7897 H   0  0  0  0  0  0  0  0  0  0  0  0
   23.3867    3.1705   -4.6097 H   0  0  0  0  0  0  0  0  0  0  0  0
   23.4542    2.0276   -5.9489 H   0  0  0  0  0  0  0  0  0  0  0  0
   24.5909    1.5177   -3.1351 H   0  0  0  0  0  0  0  0  0  0  0  0
   25.5031    1.8485   -4.6038 H   0  0  0  0  0  0  0  0  0  0  0  0
   23.9000   -0.5899   -4.0085 H   0  0  0  0  0  0  0  0  0  0  0  0
   24.6217   -2.2771   -6.5349 H   0  0  0  0  0  0  0  0  0  0  0  0
   24.5505   -2.4779   -4.7867 H   0  0  0  0  0  0  0  0  0  0  0  0
   27.1092   -2.5642   -4.7492 H   0  0  0  0  0  0  0  0  0  0  0  0
   27.0883   -2.5635   -6.5155 H   0  0  0  0  0  0  0  0  0  0  0  0
   25.7109   -4.6286   -4.8431 H   0  0  0  0  0  0  0  0  0  0  0  0
   26.3733   -6.7199   -4.9164 H   0  0  0  0  0  0  0  0  0  0  0  0
   28.8397   -6.8996   -6.2024 H   0  0  0  0  0  0  0  0  0  0  0  0
   27.9452   -7.9686   -8.1056 H   0  0  0  0  0  0  0  0  0  0  0  0
   27.2514   -6.4449   -8.6841 H   0  0  0  0  0  0  0  0  0  0  0  0
   26.4749   -7.9830   -9.0715 H   0  0  0  0  0  0  0  0  0  0  0  0
   26.7005   -9.3618   -6.3698 H   0  0  0  0  0  0  0  0  0  0  0  0
   25.2197   -9.2925   -7.3283 H   0  0  0  0  0  0  0  0  0  0  0  0
   25.2049   -8.7599   -5.6420 H   0  0  0  0  0  0  0  0  0  0  0  0
   25.0813   -5.5233   -7.5844 H   0  0  0  0  0  0  0  0  0  0  0  0
   24.2072   -6.5320   -6.4112 H   0  0  0  0  0  0  0  0  0  0  0  0
   21.8707   -4.6309   -8.3352 H   0  0  0  0  0  0  0  0  0  0  0  0
   22.3395   -4.2527  -11.8343 H   0  0  0  0  0  0  0  0  0  0  0  0
   18.8974   -8.0529  -12.4985 H   0  0  0  0  0  0  0  0  0  0  0  0
   18.6941   -6.7992  -11.3025 H   0  0  0  0  0  0  0  0  0  0  0  0
   19.9011   -8.1939   -9.6141 H   0  0  0  0  0  0  0  0  0  0  0  0
   18.1968  -10.3796   -8.5191 H   0  0  0  0  0  0  0  0  0  0  0  0
   16.2623  -11.7714   -8.2918 H   0  0  0  0  0  0  0  0  0  0  0  0
   14.2302  -14.4027  -11.8214 H   0  0  0  0  0  0  0  0  0  0  0  0
   14.5811  -14.6025  -13.5072 H   0  0  0  0  0  0  0  0  0  0  0  0
   18.1380  -12.1142  -14.4516 H   0  0  0  0  0  0  0  0  0  0  0  0
   19.9214  -11.9416  -10.1992 H   0  0  0  0  0  0  0  0  0  0  0  0
   21.5035  -11.0472   -8.8717 H   0  0  0  0  0  0  0  0  0  0  0  0
   19.9839  -10.1979  -11.9087 H   0  0  0  0  0  0  0  0  0  0  0  0
   23.8638  -11.2865   -9.5934 H   0  0  0  0  0  0  0  0  0  0  0  0
   22.3323  -12.7826  -12.1391 H   0  0  0  0  0  0  0  0  0  0  0  0
  1  2  1  0  0  0  0
  1 54  1  0  0  0  0
  1 55  1  0  0  0  0
  1 56  1  0  0  0  0
  2  3  1  0  0  0  0
  2 57  1  0  0  0  0
  2 58  1  0  0  0  0
  3  4  1  0  0  0  0
  3 59  1  0  0  0  0
  3 60  1  0  0  0  0
  4  5  2  0  0  0  0
  4  6  1  0  0  0  0
  6  7  1  0  0  0  0
  7  8  1  0  0  0  0
  7 61  1  0  0  0  0
  7 62  1  0  0  0  0
  8  9  1  0  0  0  0
  8 63  1  0  0  0  0
  8 64  1  0  0  0  0
  9 10  1  0  0  0  0
  9 65  1  0  0  0  0
 10 11  2  0  0  0  0
 10 12  1  0  0  0  0
 12 13  1  0  0  0  0
 12 66  1  0  0  0  0
 12 67  1  0  0  0  0
 13 14  1  0  0  0  0
 13 68  1  0  0  0  0
 13 69  1  0  0  0  0
 14 15  1  0  0  0  0
 14 70  1  0  0  0  0
 15 16  2  0  0  0  0
 17 19  1  0  0  0  0
 17 18  1  0  0  0  0
 17 15  1  0  0  0  0
 17 71  1  1  0  0  0
 18 72  1  0  0  0  0
 19 20  1  0  0  0  0
 19 21  1  0  0  0  0
 19 22  1  0  0  0  0
 20 73  1  0  0  0  0
 20 74  1  0  0  0  0
 20 75  1  0  0  0  0
 21 76  1  0  0  0  0
 21 77  1  0  0  0  0
 21 78  1  0  0  0  0
 22 23  1  0  0  0  0
 22 79  1  0  0  0  0
 22 80  1  0  0  0  0
 23 24  1  0  0  0  0
 24 25  2  0  0  0  0
 24 26  1  0  0  0  0
 24 27  1  0  0  0  0
 26 81  1  0  0  0  0
 27 28  1  0  0  0  0
 28 29  2  0  0  0  0
 28 30  1  0  0  0  0
 28 31  1  0  0  0  0
 30 82  1  0  0  0  0
 31 32  1  0  0  0  0
 32 83  1  0  0  0  0
 32 84  1  0  0  0  0
 33 34  1  0  0  0  0
 33 48  1  0  0  0  0
 33 32  1  0  0  0  0
 33 85  1  1  0  0  0
 34 35  1  0  0  0  0
 35 46  1  0  0  0  0
 35 36  1  0  0  0  0
 35 86  1  1  0  0  0
 36 37  1  0  0  0  0
 36 45  1  0  0  0  0
 37 38  2  0  0  0  0
 37 87  1  0  0  0  0
 38 39  1  0  0  0  0
 39 40  1  0  0  0  0
 39 45  2  0  0  0  0
 40 41  1  0  0  0  0
 40 42  2  0  0  0  0
 41 88  1  0  0  0  0
 41 89  1  0  0  0  0
 42 43  1  0  0  0  0
 43 44  2  0  0  0  0
 43 90  1  0  0  0  0
 44 45  1  0  0  0  0
 46 47  1  0  0  0  0
 46 48  1  0  0  0  0
 46 91  1  6  0  0  0
 47 92  1  0  0  0  0
 48 49  1  0  0  0  0
 48 93  1  6  0  0  0
 49 50  1  0  0  0  0
 50 51  2  0  0  0  0
 50 52  1  0  0  0  0
 50 53  1  0  0  0  0
 52 94  1  0  0  0  0
 53 95  1  0  0  0  0
M  END
$$$$
