CHEBI:18047
 OpenBabel04242423283D

 28 27  0  0  0  0  0  0  0  0999 V2000
    7.1172   -7.7869    1.5780 O   0  0  0  0  0  0  0  0  0  0  0  0
    8.0269   -8.2220    0.8893 C   0  0  0  0  0  0  0  0  0  0  0  0
    8.4538   -9.5023    0.9834 O   0  0  0  0  0  0  0  0  0  0  0  0
    8.7679   -7.4392   -0.1697 C   0  0  0  0  0  0  0  0  0  0  0  0
    8.6119   -5.9321    0.0304 C   0  0  0  0  0  0  0  0  0  0  0  0
    9.3237   -5.1461   -1.0731 C   0  0  0  0  0  0  0  0  0  0  0  0
    9.1557   -3.6335   -0.8727 C   0  0  0  0  0  0  0  0  0  0  0  0
    9.8115   -2.7728   -1.9714 C   0  0  0  0  0  0  0  0  0  0  0  0
    9.0014   -3.0640   -3.5900 S   0  0  0  0  0  0  0  0  0  0  0  0
    9.7508   -1.2804   -1.5872 C   0  0  0  0  0  0  0  0  0  0  0  0
   10.5021   -0.3651   -2.5567 C   0  0  0  0  0  0  0  0  0  0  0  0
   10.4558    1.3571   -1.9729 S   0  0  0  0  0  0  0  0  0  0  0  0
    9.1746   -9.7268    0.3655 H   0  0  0  0  0  0  0  0  0  0  0  0
    8.3750   -7.7401   -1.1470 H   0  0  0  0  0  0  0  0  0  0  0  0
    9.8320   -7.6962   -0.1210 H   0  0  0  0  0  0  0  0  0  0  0  0
    9.0139   -5.6482    1.0110 H   0  0  0  0  0  0  0  0  0  0  0  0
    7.5472   -5.6672    0.0376 H   0  0  0  0  0  0  0  0  0  0  0  0
    8.9149   -5.4572   -2.0401 H   0  0  0  0  0  0  0  0  0  0  0  0
   10.3913   -5.3970   -1.0770 H   0  0  0  0  0  0  0  0  0  0  0  0
    9.6064   -3.3706    0.0938 H   0  0  0  0  0  0  0  0  0  0  0  0
    8.0893   -3.3862   -0.7893 H   0  0  0  0  0  0  0  0  0  0  0  0
   10.8616   -3.0697   -2.0765 H   0  0  0  0  0  0  0  0  0  0  0  0
    7.7696   -2.6793   -3.2210 H   0  0  0  0  0  0  0  0  0  0  0  0
   10.1925   -1.1699   -0.5873 H   0  0  0  0  0  0  0  0  0  0  0  0
    8.7032   -0.9614   -1.5012 H   0  0  0  0  0  0  0  0  0  0  0  0
   10.0551   -0.3808   -3.5541 H   0  0  0  0  0  0  0  0  0  0  0  0
   11.5489   -0.6720   -2.6457 H   0  0  0  0  0  0  0  0  0  0  0  0
   11.1568    1.1636   -0.8465 H   0  0  0  0  0  0  0  0  0  0  0  0
  1  2  2  0  0  0  0
  2  3  1  0  0  0  0
  2  4  1  0  0  0  0
  3 13  1  0  0  0  0
  4  5  1  0  0  0  0
  4 14  1  0  0  0  0
  4 15  1  0  0  0  0
  5  6  1  0  0  0  0
  5 16  1  0  0  0  0
  5 17  1  0  0  0  0
  6  7  1  0  0  0  0
  6 18  1  0  0  0  0
  6 19  1  0  0  0  0
  7  8  1  0  0  0  0
  7 20  1  0  0  0  0
  7 21  1  0  0  0  0
  8  9  1  0  0  0  0
  8 10  1  0  0  0  0
  8 22  1  0  0  0  0
  9 23  1  0  0  0  0
 10 11  1  0  0  0  0
 10 24  1  0  0  0  0
 10 25  1  0  0  0  0
 11 12  1  0  0  0  0
 11 26  1  0  0  0  0
 11 27  1  0  0  0  0
 12 28  1  0  0  0  0
M  END
$$$$
