CHEBI:18425
 OpenBabel04252409363D

 28 28  0  0  1  0  0  0  0  0999 V2000
    0.9554   -0.1493   -0.2754 C   0  0  0  0  0  0  0  0  0  0  0  0
    2.4237   -0.0340    0.2021 C   0  0  1  0  0  0  0  0  0  0  0  0
    2.3839    0.1822    1.7346 C   0  0  0  0  0  0  0  0  0  0  0  0
    3.4903   -0.4324    2.3866 O   0  0  0  0  0  0  0  0  0  0  0  0
    2.9680   -1.3311   -0.0477 O   0  0  0  0  0  0  0  0  0  0  0  0
    4.4379   -1.5923   -0.6061 P   0  0  0  0  0  0  0  0  0  0  0  0
    4.7054   -0.9982   -1.9505 O   0  0  0  0  0  0  0  0  0  0  0  0
    4.4517   -3.1936   -0.7037 O   0  0  0  0  0  0  0  0  0  0  0  0
    5.4695   -1.3168    0.5487 O   0  0  0  0  0  0  0  0  0  0  0  0
    6.1183    0.0378    1.0387 P   0  0  0  0  0  0  0  0  0  0  0  0
    6.8275   -0.0445    2.3520 O   0  0  0  0  0  0  0  0  0  0  0  0
    7.1983    0.3756   -0.0983 O   0  0  0  0  0  0  0  0  0  0  0  0
    5.0517    1.2262    0.9158 O   0  0  0  0  0  0  0  0  0  0  0  0
    4.5313    1.5880   -0.3369 C   0  0  0  0  0  0  0  0  0  0  0  0
    3.0676    1.1717   -0.5675 C   0  0  1  0  0  0  0  0  0  0  0  0
    2.8747    1.0221   -1.9864 O   0  0  0  0  0  0  0  0  0  0  0  0
    0.4370   -0.9648    0.2435 H   0  0  0  0  0  0  0  0  0  0  0  0
    0.9016   -0.3992   -1.3412 H   0  0  0  0  0  0  0  0  0  0  0  0
    0.3984    0.7776   -0.1031 H   0  0  0  0  0  0  0  0  0  0  0  0
    1.4860   -0.2635    2.1782 H   0  0  0  0  0  0  0  0  0  0  0  0
    2.3675    1.2467    1.9904 H   0  0  0  0  0  0  0  0  0  0  0  0
    3.3403   -1.3958    2.3453 H   0  0  0  0  0  0  0  0  0  0  0  0
    4.9165   -3.4852   -1.5095 H   0  0  0  0  0  0  0  0  0  0  0  0
    8.0429    0.6123    0.3324 H   0  0  0  0  0  0  0  0  0  0  0  0
    5.1817    1.2520   -1.1489 H   0  0  0  0  0  0  0  0  0  0  0  0
    4.5842    2.6822   -0.3992 H   0  0  0  0  0  0  0  0  0  0  0  0
    2.4674    2.0518   -0.2984 H   0  0  0  0  0  0  0  0  0  0  0  0
    3.4876    0.3255   -2.3109 H   0  0  0  0  0  0  0  0  0  0  0  0
  1 17  1  0  0  0  0
  1 18  1  0  0  0  0
  1 19  1  0  0  0  0
  2  1  1  6  0  0  0
  2  3  1  0  0  0  0
  2  5  1  0  0  0  0
  2 15  1  0  0  0  0
  3  4  1  0  0  0  0
  3 20  1  0  0  0  0
  3 21  1  0  0  0  0
  4 22  1  0  0  0  0
  5  6  1  0  0  0  0
  6  7  2  0  0  0  0
  6  8  1  0  0  0  0
  6  9  1  0  0  0  0
  8 23  1  0  0  0  0
  9 10  1  0  0  0  0
 10 11  2  0  0  0  0
 10 12  1  0  0  0  0
 10 13  1  0  0  0  0
 12 24  1  0  0  0  0
 13 14  1  0  0  0  0
 14 15  1  0  0  0  0
 14 25  1  0  0  0  0
 14 26  1  0  0  0  0
 15 16  1  0  0  0  0
 15 27  1  1  0  0  0
 16 28  1  0  0  0  0
M  END
$$$$
