CHEBI:18173
 OpenBabel04242423403D

 27 27  0  0  1  0  0  0  0  0999 V2000
    2.4150   -2.2557    2.1367 C   0  0  0  0  0  0  0  0  0  0  0  0
    3.0693   -1.3827    1.2237 O   0  0  0  0  0  0  0  0  0  0  0  0
    2.6516   -1.5532   -0.1519 C   0  0  1  0  0  0  0  0  0  0  0  0
    3.2982   -0.3696   -0.9046 C   0  0  1  0  0  0  0  0  0  0  0  0
    4.7021   -0.3352   -0.6174 O   0  0  0  0  0  0  0  0  0  0  0  0
    3.0975   -0.4354   -2.4203 C   0  0  2  0  0  0  0  0  0  0  0  0
    1.7127   -0.2683   -2.7594 O   0  0  0  0  0  0  0  0  0  0  0  0
    3.5723   -1.7809   -2.9816 C   0  0  2  0  0  0  0  0  0  0  0  0
    3.2431   -1.8696   -4.3803 O   0  0  0  0  0  0  0  0  0  0  0  0
    2.8915   -2.9491   -2.2672 C   0  0  1  0  0  0  0  0  0  0  0  0
    3.4140   -4.1954   -2.7635 O   0  0  0  0  0  0  0  0  0  0  0  0
    3.0979   -2.9040   -0.7495 C   0  0  2  0  0  0  0  0  0  0  0  0
    2.3303   -3.9863   -0.1895 O   0  0  0  0  0  0  0  0  0  0  0  0
    2.5641   -1.8593    3.1452 H   0  0  0  0  0  0  0  0  0  0  0  0
    2.8661   -3.2503    2.1039 H   0  0  0  0  0  0  0  0  0  0  0  0
    1.3397   -2.3066    1.9421 H   0  0  0  0  0  0  0  0  0  0  0  0
    1.5586   -1.4629   -0.1968 H   0  0  0  0  0  0  0  0  0  0  0  0
    2.8752    0.5643   -0.5147 H   0  0  0  0  0  0  0  0  0  0  0  0
    4.7628   -0.4653    0.3533 H   0  0  0  0  0  0  0  0  0  0  0  0
    3.6519    0.3658   -2.9234 H   0  0  0  0  0  0  0  0  0  0  0  0
    1.4834    0.6616   -2.5718 H   0  0  0  0  0  0  0  0  0  0  0  0
    4.6614   -1.8770   -2.9072 H   0  0  0  0  0  0  0  0  0  0  0  0
    2.3611   -1.4524   -4.4653 H   0  0  0  0  0  0  0  0  0  0  0  0
    1.8200   -2.9744   -2.5024 H   0  0  0  0  0  0  0  0  0  0  0  0
    3.4845   -4.0740   -3.7328 H   0  0  0  0  0  0  0  0  0  0  0  0
    4.1428   -3.1112   -0.4891 H   0  0  0  0  0  0  0  0  0  0  0  0
    2.5731   -4.7671   -0.7292 H   0  0  0  0  0  0  0  0  0  0  0  0
  1  2  1  0  0  0  0
  1 14  1  0  0  0  0
  1 15  1  0  0  0  0
  1 16  1  0  0  0  0
  3  4  1  0  0  0  0
  3 12  1  0  0  0  0
  3  2  1  0  0  0  0
  3 17  1  6  0  0  0
  4  5  1  0  0  0  0
  4  6  1  0  0  0  0
  4 18  1  1  0  0  0
  5 19  1  0  0  0  0
  6  8  1  0  0  0  0
  6  7  1  0  0  0  0
  6 20  1  6  0  0  0
  7 21  1  0  0  0  0
  8 10  1  0  0  0  0
  8  9  1  0  0  0  0
  8 22  1  1  0  0  0
  9 23  1  0  0  0  0
 10 11  1  0  0  0  0
 10 12  1  0  0  0  0
 10 24  1  6  0  0  0
 11 25  1  0  0  0  0
 12 13  1  0  0  0  0
 12 26  1  1  0  0  0
 13 27  1  0  0  0  0
M  END
$$$$
