CHEBI:17924
 OpenBabel04242423163D

 26 25  0  0  1  0  0  0  0  0999 V2000
    7.6953    2.3673   -0.1348 O   0  0  0  0  0  0  0  0  0  0  0  0
    8.0697    0.9926   -0.2826 C   0  0  0  0  0  0  0  0  0  0  0  0
    7.2684    0.4009   -1.4492 C   0  0  1  0  0  0  0  0  0  0  0  0
    7.5842    1.1591   -2.6343 O   0  0  0  0  0  0  0  0  0  0  0  0
    7.5871   -1.0901   -1.6728 C   0  0  1  0  0  0  0  0  0  0  0  0
    9.0134   -1.2244   -1.8462 O   0  0  0  0  0  0  0  0  0  0  0  0
    6.9261   -1.7448   -2.9102 C   0  0  2  0  0  0  0  0  0  0  0  0
    7.3191   -1.0487   -4.1052 O   0  0  0  0  0  0  0  0  0  0  0  0
    5.3968   -1.8660   -2.8293 C   0  0  1  0  0  0  0  0  0  0  0  0
    4.7698   -0.5791   -2.7681 O   0  0  0  0  0  0  0  0  0  0  0  0
    4.8246   -2.6071   -4.0436 C   0  0  0  0  0  0  0  0  0  0  0  0
    3.4025   -2.6813   -3.8872 O   0  0  0  0  0  0  0  0  0  0  0  0
    8.2051    2.7134    0.6188 H   0  0  0  0  0  0  0  0  0  0  0  0
    7.8544    0.4670    0.6525 H   0  0  0  0  0  0  0  0  0  0  0  0
    9.1456    0.9725   -0.4815 H   0  0  0  0  0  0  0  0  0  0  0  0
    6.2044    0.5521   -1.2492 H   0  0  0  0  0  0  0  0  0  0  0  0
    7.5092    2.0925   -2.3433 H   0  0  0  0  0  0  0  0  0  0  0  0
    7.3232   -1.6589   -0.7743 H   0  0  0  0  0  0  0  0  0  0  0  0
    9.1923   -0.8217   -2.7222 H   0  0  0  0  0  0  0  0  0  0  0  0
    7.3456   -2.7533   -3.0150 H   0  0  0  0  0  0  0  0  0  0  0  0
    7.1512   -0.0955   -3.9217 H   0  0  0  0  0  0  0  0  0  0  0  0
    5.1118   -2.3945   -1.9122 H   0  0  0  0  0  0  0  0  0  0  0  0
    3.8291   -0.7496   -2.9815 H   0  0  0  0  0  0  0  0  0  0  0  0
    5.2240   -3.6231   -4.1157 H   0  0  0  0  0  0  0  0  0  0  0  0
    5.0212   -2.0633   -4.9729 H   0  0  0  0  0  0  0  0  0  0  0  0
    3.0605   -3.1260   -4.6836 H   0  0  0  0  0  0  0  0  0  0  0  0
  1  2  1  0  0  0  0
  1 13  1  0  0  0  0
  2  3  1  0  0  0  0
  2 14  1  0  0  0  0
  2 15  1  0  0  0  0
  3  4  1  0  0  0  0
  3  5  1  0  0  0  0
  3 16  1  1  0  0  0
  4 17  1  0  0  0  0
  5  6  1  0  0  0  0
  5 18  1  6  0  0  0
  6 19  1  0  0  0  0
  7  9  1  0  0  0  0
  7  8  1  0  0  0  0
  7  5  1  0  0  0  0
  7 20  1  6  0  0  0
  8 21  1  0  0  0  0
  9 10  1  0  0  0  0
  9 11  1  0  0  0  0
  9 22  1  1  0  0  0
 10 23  1  0  0  0  0
 11 12  1  0  0  0  0
 11 24  1  0  0  0  0
 11 25  1  0  0  0  0
 12 26  1  0  0  0  0
M  END
$$$$
