CHEBI:15416
 OpenBabel04242411503D

 53 56  0  0  1  0  0  0  0  0999 V2000
    0.0779   -0.4936   -1.2688 C   0  0  0  0  0  0  0  0  0  0  0  0
    1.2471   -0.7265   -0.6581 C   0  0  0  0  0  0  0  0  0  0  0  0
    2.6068   -0.5571   -1.2921 C   0  0  0  0  0  0  0  0  0  0  0  0
    3.5910   -0.9609   -0.1550 C   0  0  1  0  0  0  0  0  0  0  0  0
    4.9175   -0.2325   -0.3174 C   0  0  0  0  0  0  0  0  0  0  0  0
    5.7685   -0.3937    0.9203 C   0  0  0  0  0  0  0  0  0  0  0  0
    6.0610   -1.8523    1.3198 C   0  0  2  0  0  0  0  0  0  0  0  0
    6.4801   -1.9657    2.8453 C   0  0  2  0  0  0  0  0  0  0  0  0
    7.7665   -1.1336    3.0970 C   0  0  0  0  0  0  0  0  0  0  0  0
    5.4059   -1.4439    3.8401 C   0  0  0  0  0  0  0  0  0  0  0  0
    5.7815   -1.7176    5.1879 O   0  0  0  0  0  0  0  0  0  0  0  0
    6.8360   -3.4371    3.1322 C   0  0  0  0  0  0  0  0  0  0  0  0
    5.6820   -4.4022    2.9118 C   0  0  0  0  0  0  0  0  0  0  0  0
    4.5994   -3.9176    1.9461 C   0  0  0  0  0  0  0  0  0  0  0  0
    5.0682   -2.9910    0.7912 C   0  0  2  0  0  0  0  0  0  0  0  0
    5.9219   -3.9186   -0.1472 C   0  0  0  0  0  0  0  0  0  0  0  0
    3.8551   -2.4965   -0.1389 C   0  0  2  0  0  0  0  0  0  0  0  0
    2.5214   -3.2930   -0.0183 C   0  0  0  0  0  0  0  0  0  0  0  0
    1.4839   -2.6604    0.9231 C   0  0  0  0  0  0  0  0  0  0  0  0
    1.4157   -1.1336    0.7851 C   0  0  0  0  0  0  0  0  0  0  0  0
    2.7898   -0.5455    1.0890 C   0  0  0  0  0  0  0  0  0  0  0  0
    0.0389   -0.1813   -2.3071 H   0  0  0  0  0  0  0  0  0  0  0  0
   -0.8641   -0.6124   -0.7437 H   0  0  0  0  0  0  0  0  0  0  0  0
    2.7409    0.4931   -1.5776 H   0  0  0  0  0  0  0  0  0  0  0  0
    2.7264   -1.1816   -2.1833 H   0  0  0  0  0  0  0  0  0  0  0  0
    4.7527    0.8386   -0.4883 H   0  0  0  0  0  0  0  0  0  0  0  0
    5.4559   -0.6061   -1.1979 H   0  0  0  0  0  0  0  0  0  0  0  0
    5.2926    0.1579    1.7344 H   0  0  0  0  0  0  0  0  0  0  0  0
    6.7210    0.1247    0.7465 H   0  0  0  0  0  0  0  0  0  0  0  0
    7.0016   -2.0504    0.7800 H   0  0  0  0  0  0  0  0  0  0  0  0
    7.5800   -0.0600    2.9858 H   0  0  0  0  0  0  0  0  0  0  0  0
    8.5636   -1.4096    2.3982 H   0  0  0  0  0  0  0  0  0  0  0  0
    8.1522   -1.2910    4.1109 H   0  0  0  0  0  0  0  0  0  0  0  0
    5.2805   -0.3601    3.7621 H   0  0  0  0  0  0  0  0  0  0  0  0
    4.4275   -1.8943    3.6843 H   0  0  0  0  0  0  0  0  0  0  0  0
    5.0638   -1.3884    5.7557 H   0  0  0  0  0  0  0  0  0  0  0  0
    7.2187   -3.5657    4.1527 H   0  0  0  0  0  0  0  0  0  0  0  0
    7.6685   -3.7355    2.4802 H   0  0  0  0  0  0  0  0  0  0  0  0
    6.0921   -5.3564    2.5561 H   0  0  0  0  0  0  0  0  0  0  0  0
    5.2076   -4.6320    3.8741 H   0  0  0  0  0  0  0  0  0  0  0  0
    3.8155   -3.4196    2.5196 H   0  0  0  0  0  0  0  0  0  0  0  0
    4.1301   -4.8261    1.5509 H   0  0  0  0  0  0  0  0  0  0  0  0
    6.7812   -4.3574    0.3690 H   0  0  0  0  0  0  0  0  0  0  0  0
    6.3144   -3.3559   -1.0033 H   0  0  0  0  0  0  0  0  0  0  0  0
    5.3190   -4.7448   -0.5422 H   0  0  0  0  0  0  0  0  0  0  0  0
    4.1839   -2.7142   -1.1676 H   0  0  0  0  0  0  0  0  0  0  0  0
    2.6725   -4.3461    0.2288 H   0  0  0  0  0  0  0  0  0  0  0  0
    2.0691   -3.3320   -1.0198 H   0  0  0  0  0  0  0  0  0  0  0  0
    1.7206   -2.9148    1.9623 H   0  0  0  0  0  0  0  0  0  0  0  0
    0.4997   -3.0985    0.7164 H   0  0  0  0  0  0  0  0  0  0  0  0
    0.6479   -0.7103    1.4403 H   0  0  0  0  0  0  0  0  0  0  0  0
    3.1974   -0.9351    2.0240 H   0  0  0  0  0  0  0  0  0  0  0  0
    2.7371    0.5482    1.1780 H   0  0  0  0  0  0  0  0  0  0  0  0
  1  2  2  0  0  0  0
  1 22  1  0  0  0  0
  1 23  1  0  0  0  0
  2  3  1  0  0  0  0
  2 20  1  0  0  0  0
  3 24  1  0  0  0  0
  3 25  1  0  0  0  0
  4  3  1  1  0  0  0
  4  5  1  0  0  0  0
  4 17  1  0  0  0  0
  4 21  1  0  0  0  0
  5  6  1  0  0  0  0
  5 26  1  0  0  0  0
  5 27  1  0  0  0  0
  6  7  1  0  0  0  0
  6 28  1  0  0  0  0
  6 29  1  0  0  0  0
  7  8  1  0  0  0  0
  7 15  1  0  0  0  0
  7 30  1  1  0  0  0
  8 12  1  0  0  0  0
  8 10  1  6  0  0  0
  8  9  1  0  0  0  0
  9 31  1  0  0  0  0
  9 32  1  0  0  0  0
  9 33  1  0  0  0  0
 10 11  1  0  0  0  0
 10 34  1  0  0  0  0
 10 35  1  0  0  0  0
 11 36  1  0  0  0  0
 12 13  1  0  0  0  0
 12 37  1  0  0  0  0
 12 38  1  0  0  0  0
 13 14  1  0  0  0  0
 13 39  1  0  0  0  0
 13 40  1  0  0  0  0
 14 15  1  0  0  0  0
 14 41  1  0  0  0  0
 14 42  1  0  0  0  0
 15 17  1  0  0  0  0
 15 16  1  6  0  0  0
 16 43  1  0  0  0  0
 16 44  1  0  0  0  0
 16 45  1  0  0  0  0
 17 18  1  0  0  0  0
 17 46  1  1  0  0  0
 18 19  1  0  0  0  0
 18 47  1  0  0  0  0
 18 48  1  0  0  0  0
 19 20  1  0  0  0  0
 19 49  1  0  0  0  0
 19 50  1  0  0  0  0
 20 21  1  0  0  0  0
 20 51  1  0  0  0  0
 21 52  1  0  0  0  0
 21 53  1  0  0  0  0
M  END
$$$$
