CHEBI:17113
 OpenBabel04242415523D

 18 17  0  0  1  0  0  0  0  0999 V2000
    0.8614    0.2930   -0.2183 O   0  0  0  0  0  0  0  0  0  0  0  0
    2.2528    0.0530    0.0267 C   0  0  0  0  0  0  0  0  0  0  0  0
    2.8709   -0.5207   -1.2523 C   0  0  1  0  0  0  0  0  0  0  0  0
    2.5687    0.3641   -2.3403 O   0  0  0  0  0  0  0  0  0  0  0  0
    4.3859   -0.7000   -1.1253 C   0  0  1  0  0  0  0  0  0  0  0  0
    4.7005   -1.5497   -0.0139 O   0  0  0  0  0  0  0  0  0  0  0  0
    4.9954   -1.3046   -2.3950 C   0  0  0  0  0  0  0  0  0  0  0  0
    6.4024   -1.4796   -2.1859 O   0  0  0  0  0  0  0  0  0  0  0  0
    0.4812    0.5918    0.6273 H   0  0  0  0  0  0  0  0  0  0  0  0
    2.3494   -0.6390    0.8685 H   0  0  0  0  0  0  0  0  0  0  0  0
    2.7082    1.0145    0.2849 H   0  0  0  0  0  0  0  0  0  0  0  0
    2.3882   -1.4802   -1.4741 H   0  0  0  0  0  0  0  0  0  0  0  0
    1.6240    0.5915   -2.2091 H   0  0  0  0  0  0  0  0  0  0  0  0
    4.8690    0.2658   -0.9339 H   0  0  0  0  0  0  0  0  0  0  0  0
    5.5948   -1.9020   -0.2035 H   0  0  0  0  0  0  0  0  0  0  0  0
    4.8431   -0.6750   -3.2767 H   0  0  0  0  0  0  0  0  0  0  0  0
    4.5786   -2.2979   -2.5897 H   0  0  0  0  0  0  0  0  0  0  0  0
    6.8150   -0.6052   -2.3054 H   0  0  0  0  0  0  0  0  0  0  0  0
  1  2  1  0  0  0  0
  1  9  1  0  0  0  0
  2  3  1  0  0  0  0
  2 10  1  0  0  0  0
  2 11  1  0  0  0  0
  3  4  1  0  0  0  0
  3  5  1  0  0  0  0
  3 12  1  6  0  0  0
  4 13  1  0  0  0  0
  5  6  1  0  0  0  0
  5  7  1  0  0  0  0
  5 14  1  1  0  0  0
  6 15  1  0  0  0  0
  7  8  1  0  0  0  0
  7 16  1  0  0  0  0
  7 17  1  0  0  0  0
  8 18  1  0  0  0  0
M  END
$$$$
