CHEBI:18113
 OpenBabel04242423333D

 51 52  0  0  1  0  0  0  0  0999 V2000
    0.5273    1.8414   -1.6357 C   0  0  0  0  0  0  0  0  0  0  0  0
    1.7418    1.2558   -2.3028 C   0  0  0  0  0  0  0  0  0  0  0  0
    1.7318    0.9145   -3.4791 O   0  0  0  0  0  0  0  0  0  0  0  0
    2.8255    1.1057   -1.4724 N   0  0  0  0  0  0  0  0  0  0  0  0
    4.1270    0.5385   -1.8798 C   0  0  2  0  0  0  0  0  0  0  0  0
    5.0295    1.5339   -2.6599 C   0  0  1  0  0  0  0  0  0  0  0  0
    6.3841    1.2277   -2.2465 O   0  0  0  0  0  0  0  0  0  0  0  0
    7.4082    2.1050   -2.7119 C   0  0  0  0  0  0  0  0  0  0  0  0
    7.2465    3.4320   -2.1976 O   0  0  0  0  0  0  0  0  0  0  0  0
    7.3067    3.5013   -0.7616 C   0  0  2  0  0  0  0  0  0  0  0  0
    6.9728    4.9421   -0.3371 C   0  0  0  0  0  0  0  0  0  0  0  0
    7.9395    5.8952   -0.7754 O   0  0  0  0  0  0  0  0  0  0  0  0
    8.6950    3.0477   -0.2905 C   0  0  2  0  0  0  0  0  0  0  0  0
    9.7253    3.9226   -0.7967 O   0  0  0  0  0  0  0  0  0  0  0  0
    8.9875    1.6318   -0.7990 C   0  0  2  0  0  0  0  0  0  0  0  0
   10.3443    1.2688   -0.4852 O   0  0  0  0  0  0  0  0  0  0  0  0
    8.7997    1.5533   -2.3174 C   0  0  1  0  0  0  0  0  0  0  0  0
    9.0151    0.2090   -2.7694 O   0  0  0  0  0  0  0  0  0  0  0  0
    4.7698    1.3921   -4.1714 C   0  0  1  0  0  0  0  0  0  0  0  0
    5.4839    2.3748   -4.9247 O   0  0  0  0  0  0  0  0  0  0  0  0
    4.9558   -0.0693   -4.6561 C   0  0  1  0  0  0  0  0  0  0  0  0
    6.1675   -0.2720   -5.5716 C   0  0  0  0  0  0  0  0  0  0  0  0
    6.0641    0.5491   -6.7364 O   0  0  0  0  0  0  0  0  0  0  0  0
    5.0554   -1.0110   -3.5760 O   0  0  0  0  0  0  0  0  0  0  0  0
    4.0314   -0.8347   -2.6077 C   0  0  1  0  0  0  0  0  0  0  0  0
    4.1946   -1.8761   -1.6508 O   0  0  0  0  0  0  0  0  0  0  0  0
   -0.0261    2.4424   -2.3634 H   0  0  0  0  0  0  0  0  0  0  0  0
    0.8078    2.4901   -0.8017 H   0  0  0  0  0  0  0  0  0  0  0  0
   -0.1094    1.0312   -1.2713 H   0  0  0  0  0  0  0  0  0  0  0  0
    2.7068    1.3064   -0.4875 H   0  0  0  0  0  0  0  0  0  0  0  0
    4.6167    0.3562   -0.9121 H   0  0  0  0  0  0  0  0  0  0  0  0
    4.8161    2.5602   -2.3377 H   0  0  0  0  0  0  0  0  0  0  0  0
    7.4012    2.1442   -3.8007 H   0  0  0  0  0  0  0  0  0  0  0  0
    6.5348    2.8458   -0.3400 H   0  0  0  0  0  0  0  0  0  0  0  0
    6.8948    5.0159    0.7522 H   0  0  0  0  0  0  0  0  0  0  0  0
    6.0136    5.2413   -0.7721 H   0  0  0  0  0  0  0  0  0  0  0  0
    8.7852    5.6793   -0.3374 H   0  0  0  0  0  0  0  0  0  0  0  0
    8.7735    3.0789    0.8014 H   0  0  0  0  0  0  0  0  0  0  0  0
    9.4067    4.2587   -1.6637 H   0  0  0  0  0  0  0  0  0  0  0  0
    8.3435    0.8992   -0.2994 H   0  0  0  0  0  0  0  0  0  0  0  0
   10.8619    2.0985   -0.5488 H   0  0  0  0  0  0  0  0  0  0  0  0
    9.5737    2.1617   -2.8016 H   0  0  0  0  0  0  0  0  0  0  0  0
    9.7504   -0.1344   -2.2236 H   0  0  0  0  0  0  0  0  0  0  0  0
    3.7273    1.6594   -4.3521 H   0  0  0  0  0  0  0  0  0  0  0  0
    5.5006    2.0622   -5.8549 H   0  0  0  0  0  0  0  0  0  0  0  0
    4.0638   -0.3319   -5.2418 H   0  0  0  0  0  0  0  0  0  0  0  0
    6.2273   -1.3185   -5.8897 H   0  0  0  0  0  0  0  0  0  0  0  0
    7.0983   -0.0337   -5.0475 H   0  0  0  0  0  0  0  0  0  0  0  0
    6.8546    0.3578   -7.2742 H   0  0  0  0  0  0  0  0  0  0  0  0
    3.0641   -1.0082   -3.0849 H   0  0  0  0  0  0  0  0  0  0  0  0
    4.5880   -2.5930   -2.1782 H   0  0  0  0  0  0  0  0  0  0  0  0
  1  2  1  0  0  0  0
  1 27  1  0  0  0  0
  1 28  1  0  0  0  0
  1 29  1  0  0  0  0
  2  3  2  0  0  0  0
  2  4  1  0  0  0  0
  4  5  1  0  0  0  0
  4 30  1  0  0  0  0
  5  6  1  0  0  0  0
  5 25  1  0  0  0  0
  5 31  1  1  0  0  0
  6  7  1  0  0  0  0
  6 19  1  0  0  0  0
  6 32  1  1  0  0  0
  7  8  1  0  0  0  0
  8  9  1  0  0  0  0
  8 17  1  0  0  0  0
  8 33  1  0  0  0  0
  9 10  1  0  0  0  0
 10 11  1  0  0  0  0
 10 13  1  0  0  0  0
 10 34  1  1  0  0  0
 11 12  1  0  0  0  0
 11 35  1  0  0  0  0
 11 36  1  0  0  0  0
 12 37  1  0  0  0  0
 13 14  1  0  0  0  0
 13 15  1  0  0  0  0
 13 38  1  1  0  0  0
 14 39  1  0  0  0  0
 15 16  1  0  0  0  0
 15 17  1  0  0  0  0
 15 40  1  1  0  0  0
 16 41  1  0  0  0  0
 17 18  1  0  0  0  0
 17 42  1  6  0  0  0
 18 43  1  0  0  0  0
 19 20  1  0  0  0  0
 19 21  1  0  0  0  0
 19 44  1  6  0  0  0
 20 45  1  0  0  0  0
 21 22  1  0  0  0  0
 21 24  1  0  0  0  0
 21 46  1  6  0  0  0
 22 23  1  0  0  0  0
 22 47  1  0  0  0  0
 22 48  1  0  0  0  0
 23 49  1  0  0  0  0
 24 25  1  0  0  0  0
 25 26  1  0  0  0  0
 25 50  1  6  0  0  0
 26 51  1  0  0  0  0
M  END
$$$$
