CHEBI:16490
 OpenBabel04242414333D

 46 48  0  0  1  0  0  0  0  0999 V2000
    9.6222   -0.7618   -3.6980 C   0  0  0  0  0  0  0  0  0  0  0  0
    9.5647    0.9330   -3.0860 S   0  3  0  0  0  0  0  0  0  0  0  0
    7.8264    0.9104   -2.5319 C   0  0  0  0  0  0  0  0  0  0  0  0
    7.3936    2.2118   -1.8667 C   0  0  0  0  0  0  0  0  0  0  0  0
    7.7010    2.2280   -0.3920 C   0  0  0  0  0  0  0  0  0  0  0  0
    8.4240    3.0644    0.1499 O   0  0  0  0  0  0  0  0  0  0  0  0
    7.1082    1.1324    0.4875 C   0  0  0  0  0  0  0  0  0  0  0  0
    7.8558    0.6584    1.4039 O   0  0  0  0  0  0  0  0  0  0  0  0
    5.9636    0.7106    0.1380 O   0  5  0  0  0  0  0  0  0  0  0  0
   10.4560    0.7172   -1.5060 C   0  0  0  0  0  0  0  0  0  0  0  0
   10.1104   -0.4735   -0.6061 C   0  0  1  0  0  0  0  0  0  0  0  0
   10.7502   -1.6649   -1.1404 O   0  0  0  0  0  0  0  0  0  0  0  0
   11.5869   -2.2213   -0.1083 C   0  0  1  0  0  0  0  0  0  0  0  0
   12.7039   -2.8838   -0.7465 N   0  0  0  0  0  0  0  0  0  0  0  0
   13.5462   -2.3439   -1.6853 C   0  0  0  0  0  0  0  0  0  0  0  0
   14.4416   -3.2128   -2.1093 N   0  0  0  0  0  0  0  0  0  0  0  0
   14.1473   -4.3746   -1.4237 C   0  0  0  0  0  0  0  0  0  0  0  0
   14.7103   -5.6620   -1.4598 C   0  0  0  0  0  0  0  0  0  0  0  0
   15.7838   -6.0003   -2.2799 N   0  0  0  0  0  0  0  0  0  0  0  0
   14.1610   -6.6335   -0.6960 N   0  0  0  0  0  0  0  0  0  0  0  0
   13.1110   -6.3066    0.0902 C   0  0  0  0  0  0  0  0  0  0  0  0
   12.4962   -5.1154    0.2156 N   0  0  0  0  0  0  0  0  0  0  0  0
   13.0663   -4.1922   -0.5762 C   0  0  0  0  0  0  0  0  0  0  0  0
   11.9752   -1.0484    0.7874 C   0  0  2  0  0  0  0  0  0  0  0  0
   12.3825   -1.4352    2.0978 O   0  0  0  0  0  0  0  0  0  0  0  0
   10.6643   -0.2819    0.8174 C   0  0  2  0  0  0  0  0  0  0  0  0
    9.8285   -0.9303    1.7928 O   0  0  0  0  0  0  0  0  0  0  0  0
    9.1212   -0.7915   -4.6694 H   0  0  0  0  0  0  0  0  0  0  0  0
    9.1145   -1.4584   -3.0289 H   0  0  0  0  0  0  0  0  0  0  0  0
   10.6645   -1.0601   -3.8357 H   0  0  0  0  0  0  0  0  0  0  0  0
    7.6253    0.0277   -1.9242 H   0  0  0  0  0  0  0  0  0  0  0  0
    7.2426    0.7952   -3.4530 H   0  0  0  0  0  0  0  0  0  0  0  0
    6.3094    2.3383   -1.9697 H   0  0  0  0  0  0  0  0  0  0  0  0
    7.8619    3.0836   -2.3367 H   0  0  0  0  0  0  0  0  0  0  0  0
   10.3219    1.6589   -0.9680 H   0  0  0  0  0  0  0  0  0  0  0  0
   11.5140    0.6638   -1.7894 H   0  0  0  0  0  0  0  0  0  0  0  0
    9.0418   -0.6831   -0.5766 H   0  0  0  0  0  0  0  0  0  0  0  0
   11.0068   -2.9743    0.4382 H   0  0  0  0  0  0  0  0  0  0  0  0
   13.4527   -1.3205   -2.0265 H   0  0  0  0  0  0  0  0  0  0  0  0
   15.8898   -5.3526   -3.0537 H   0  0  0  0  0  0  0  0  0  0  0  0
   15.7777   -6.9882   -2.4950 H   0  0  0  0  0  0  0  0  0  0  0  0
   12.7066   -7.1122    0.6961 H   0  0  0  0  0  0  0  0  0  0  0  0
   12.7642   -0.4359    0.3367 H   0  0  0  0  0  0  0  0  0  0  0  0
   11.5381   -1.5222    2.5964 H   0  0  0  0  0  0  0  0  0  0  0  0
   10.7830    0.7590    1.1321 H   0  0  0  0  0  0  0  0  0  0  0  0
    8.9829   -0.3907    1.7975 H   0  0  0  0  0  0  0  0  0  0  0  0
  1  2  1  0  0  0  0
  1 28  1  0  0  0  0
  1 29  1  0  0  0  0
  1 30  1  0  0  0  0
  2  3  1  0  0  0  0
  2 10  1  0  0  0  0
  3  4  1  0  0  0  0
  3 31  1  0  0  0  0
  3 32  1  0  0  0  0
  4  5  1  0  0  0  0
  4 33  1  0  0  0  0
  4 34  1  0  0  0  0
  5  6  2  0  0  0  0
  5  7  1  0  0  0  0
  7  8  2  0  0  0  0
  7  9  1  0  0  0  0
 10 11  1  0  0  0  0
 10 35  1  0  0  0  0
 10 36  1  0  0  0  0
 11 12  1  0  0  0  0
 11 26  1  0  0  0  0
 11 37  1  1  0  0  0
 12 13  1  0  0  0  0
 13 14  1  0  0  0  0
 13 24  1  0  0  0  0
 13 38  1  1  0  0  0
 14 15  1  0  0  0  0
 14 23  1  0  0  0  0
 15 16  2  0  0  0  0
 15 39  1  0  0  0  0
 16 17  1  0  0  0  0
 17 18  1  0  0  0  0
 17 23  2  0  0  0  0
 18 19  1  0  0  0  0
 18 20  2  0  0  0  0
 19 40  1  0  0  0  0
 19 41  1  0  0  0  0
 20 21  1  0  0  0  0
 21 22  2  0  0  0  0
 21 42  1  0  0  0  0
 22 23  1  0  0  0  0
 24 25  1  0  0  0  0
 24 26  1  0  0  0  0
 24 43  1  6  0  0  0
 25 44  1  0  0  0  0
 26 27  1  0  0  0  0
 26 45  1  1  0  0  0
 27 46  1  0  0  0  0
M  CHG  2   2   1   9  -1
M  END
$$$$
