CHEBI:16855
 OpenBabel04242415263D

 24 23  0  0  1  0  0  0  0  0999 V2000
    3.0065   -2.7379    1.6882 N   0  0  0  0  0  0  0  0  0  0  0  0
    2.0965   -2.3092    0.6313 C   0  0  0  0  0  0  0  0  0  0  0  0
    2.6784   -1.1512   -0.1827 C   0  0  0  0  0  0  0  0  0  0  0  0
    4.0327   -1.4359   -0.8453 C   0  0  0  0  0  0  0  0  0  0  0  0
    3.9796   -2.5827   -1.8599 C   0  0  0  0  0  0  0  0  0  0  0  0
    5.3097   -2.7990   -2.5908 C   0  0  1  0  0  0  0  0  0  0  0  0
    6.4028   -3.2198   -1.6608 N   0  0  0  0  0  0  0  0  0  0  0  0
    5.1604   -3.8829   -3.6764 C   0  0  0  0  0  0  0  0  0  0  0  0
    4.2401   -3.9715   -4.4729 O   0  0  0  0  0  0  0  0  0  0  0  0
    6.2210   -4.7346   -3.6607 O   0  0  0  0  0  0  0  0  0  0  0  0
    2.5612   -3.4796    2.2292 H   0  0  0  0  0  0  0  0  0  0  0  0
    3.1509   -1.9677    2.3414 H   0  0  0  0  0  0  0  0  0  0  0  0
    1.1494   -1.9914    1.0815 H   0  0  0  0  0  0  0  0  0  0  0  0
    1.8697   -3.1600   -0.0187 H   0  0  0  0  0  0  0  0  0  0  0  0
    2.7914   -0.2758    0.4698 H   0  0  0  0  0  0  0  0  0  0  0  0
    1.9535   -0.8675   -0.9556 H   0  0  0  0  0  0  0  0  0  0  0  0
    4.7805   -1.6435   -0.0720 H   0  0  0  0  0  0  0  0  0  0  0  0
    4.3610   -0.5227   -1.3573 H   0  0  0  0  0  0  0  0  0  0  0  0
    3.1943   -2.3672   -2.5958 H   0  0  0  0  0  0  0  0  0  0  0  0
    3.6842   -3.5160   -1.3652 H   0  0  0  0  0  0  0  0  0  0  0  0
    5.6313   -1.8850   -3.1030 H   0  0  0  0  0  0  0  0  0  0  0  0
    5.9852   -3.8201   -0.9385 H   0  0  0  0  0  0  0  0  0  0  0  0
    6.6962   -2.3904   -1.1354 H   0  0  0  0  0  0  0  0  0  0  0  0
    6.7958   -4.4195   -2.9170 H   0  0  0  0  0  0  0  0  0  0  0  0
  1  2  1  0  0  0  0
  1 11  1  0  0  0  0
  1 12  1  0  0  0  0
  2  3  1  0  0  0  0
  2 13  1  0  0  0  0
  2 14  1  0  0  0  0
  3  4  1  0  0  0  0
  3 15  1  0  0  0  0
  3 16  1  0  0  0  0
  4  5  1  0  0  0  0
  4 17  1  0  0  0  0
  4 18  1  0  0  0  0
  5  6  1  0  0  0  0
  5 19  1  0  0  0  0
  5 20  1  0  0  0  0
  6  7  1  0  0  0  0
  6  8  1  0  0  0  0
  6 21  1  6  0  0  0
  7 22  1  0  0  0  0
  7 23  1  0  0  0  0
  8  9  2  0  0  0  0
  8 10  1  0  0  0  0
 10 24  1  0  0  0  0
M  END
$$$$
