CHEBI:17802
 OpenBabel04242417373D

 29 30  0  0  1  0  0  0  0  0999 V2000
   -0.2363    3.3906   -1.1127 O   0  0  0  0  0  0  0  0  0  0  0  0
    0.4075    2.3634   -0.9328 C   0  0  0  0  0  0  0  0  0  0  0  0
   -0.1952    1.1577   -0.7091 N   0  0  0  0  0  0  0  0  0  0  0  0
    0.4914   -0.0043   -0.4959 C   0  0  0  0  0  0  0  0  0  0  0  0
    1.8324   -0.0440   -0.4942 C   0  0  0  0  0  0  0  0  0  0  0  0
    2.6191   -1.2978   -0.2417 C   0  0  2  0  0  0  0  0  0  0  0  0
    3.5111   -1.1250    0.8780 O   0  0  0  0  0  0  0  0  0  0  0  0
    4.7448   -1.8399    0.6090 C   0  0  2  0  0  0  0  0  0  0  0  0
    5.9165   -0.8536    0.5493 C   0  0  0  0  0  0  0  0  0  0  0  0
    5.9665   -0.1403   -0.6784 O   0  0  0  0  0  0  0  0  0  0  0  0
    4.5216   -2.6257   -0.6843 C   0  0  1  0  0  0  0  0  0  0  0  0
    3.9729   -3.9353   -0.4149 O   0  0  0  0  0  0  0  0  0  0  0  0
    3.4588   -1.8117   -1.4135 C   0  0  1  0  0  0  0  0  0  0  0  0
    2.6880   -2.6219   -2.3027 O   0  0  0  0  0  0  0  0  0  0  0  0
    2.5486    1.2339   -0.7447 C   0  0  0  0  0  0  0  0  0  0  0  0
    3.7740    1.3016   -0.7792 O   0  0  0  0  0  0  0  0  0  0  0  0
    1.7716    2.3422   -0.9405 N   0  0  0  0  0  0  0  0  0  0  0  0
   -1.2093    1.1681   -0.7043 H   0  0  0  0  0  0  0  0  0  0  0  0
   -0.1169   -0.8877   -0.3248 H   0  0  0  0  0  0  0  0  0  0  0  0
    1.9164   -2.0885    0.0572 H   0  0  0  0  0  0  0  0  0  0  0  0
    4.9008   -2.5083    1.4632 H   0  0  0  0  0  0  0  0  0  0  0  0
    6.8596   -1.4020    0.6363 H   0  0  0  0  0  0  0  0  0  0  0  0
    5.8629   -0.1269    1.3667 H   0  0  0  0  0  0  0  0  0  0  0  0
    5.2468    0.5319   -0.6511 H   0  0  0  0  0  0  0  0  0  0  0  0
    5.4266   -2.7835   -1.2771 H   0  0  0  0  0  0  0  0  0  0  0  0
    3.4887   -3.9006    0.4305 H   0  0  0  0  0  0  0  0  0  0  0  0
    3.9104   -1.0001   -1.9901 H   0  0  0  0  0  0  0  0  0  0  0  0
    2.9337   -3.5487   -2.0982 H   0  0  0  0  0  0  0  0  0  0  0  0
    2.2406    3.2177   -1.1101 H   0  0  0  0  0  0  0  0  0  0  0  0
  1  2  2  0  0  0  0
  2  3  1  0  0  0  0
  2 17  1  0  0  0  0
  3  4  1  0  0  0  0
  3 18  1  0  0  0  0
  4  5  2  0  0  0  0
  4 19  1  0  0  0  0
  5  6  1  0  0  0  0
  5 15  1  0  0  0  0
  6  7  1  0  0  0  0
  6 13  1  0  0  0  0
  6 20  1  1  0  0  0
  7  8  1  0  0  0  0
  8  9  1  0  0  0  0
  8 11  1  0  0  0  0
  8 21  1  1  0  0  0
  9 10  1  0  0  0  0
  9 22  1  0  0  0  0
  9 23  1  0  0  0  0
 10 24  1  0  0  0  0
 11 12  1  0  0  0  0
 11 13  1  0  0  0  0
 11 25  1  6  0  0  0
 12 26  1  0  0  0  0
 13 14  1  0  0  0  0
 13 27  1  6  0  0  0
 14 28  1  0  0  0  0
 15 16  2  0  0  0  0
 15 17  1  0  0  0  0
 17 29  1  0  0  0  0
M  END
$$$$
