CHEBI:17030
 OpenBabel04242415433D

 81 85  0  0  1  0  0  0  0  0999 V2000
   14.3744    0.9184   -0.4813 C   0  0  0  0  0  0  0  0  0  0  0  0
   13.4323   -0.1044    0.0999 C   0  0  0  0  0  0  0  0  0  0  0  0
   13.6291   -1.4972   -0.4286 C   0  0  0  0  0  0  0  0  0  0  0  0
   12.5116    0.2583    1.0147 C   0  0  0  0  0  0  0  0  0  0  0  0
   11.5255   -0.6140    1.7457 C   0  0  0  0  0  0  0  0  0  0  0  0
   10.0842   -0.2665    1.3493 C   0  0  0  0  0  0  0  0  0  0  0  0
    8.9797   -1.1048    2.0590 C   0  0  1  0  0  0  0  0  0  0  0  0
    9.1280   -0.9710    3.5807 C   0  0  0  0  0  0  0  0  0  0  0  0
    7.5615   -0.6608    1.5676 C   0  0  1  0  0  0  0  0  0  0  0  0
    7.4085   -0.7375    0.0441 C   0  0  0  0  0  0  0  0  0  0  0  0
    5.9492   -0.3888   -0.1675 C   0  0  0  0  0  0  0  0  0  0  0  0
    5.1768   -1.1795    0.9176 C   0  0  1  0  0  0  0  0  0  0  0  0
    4.6884   -2.4909    0.2539 C   0  0  0  0  0  0  0  0  0  0  0  0
    3.9669   -0.3216    1.4284 C   0  0  2  0  0  0  0  0  0  0  0  0
    2.9407    0.0731    0.3576 C   0  0  0  0  0  0  0  0  0  0  0  0
    1.8445    0.9371    0.9819 C   0  0  0  0  0  0  0  0  0  0  0  0
    0.9794    0.0872    1.9230 C   0  0  1  0  0  0  0  0  0  0  0  0
   -0.2672    0.8339    2.5013 C   0  0  0  0  0  0  0  0  0  0  0  0
   -1.3006    1.0625    1.3656 C   0  0  0  0  0  0  0  0  0  0  0  0
    0.0653    2.2272    3.0767 C   0  0  0  0  0  0  0  0  0  0  0  0
   -0.9283   -0.0570    3.5833 C   0  0  1  0  0  0  0  0  0  0  0  0
   -1.4179   -1.2737    3.0030 O   0  0  0  0  0  0  0  0  0  0  0  0
   -0.0100   -0.4226    4.7461 C   0  0  0  0  0  0  0  0  0  0  0  0
    1.4802   -0.3704    4.4339 C   0  0  0  0  0  0  0  0  0  0  0  0
    1.8462   -0.6285    2.9869 C   0  0  1  0  0  0  0  0  0  0  0  0
    2.2812   -2.0231    2.5963 C   0  0  0  0  0  0  0  0  0  0  0  0
    3.3417   -0.9442    2.6783 C   0  0  1  0  0  0  0  0  0  0  0  0
    4.3524   -1.1236    3.8085 C   0  0  0  0  0  0  0  0  0  0  0  0
    5.7847   -0.7620    3.4127 C   0  0  0  0  0  0  0  0  0  0  0  0
    6.2652   -1.4118    2.0854 C   0  0  2  0  0  0  0  0  0  0  0  0
    6.5440   -2.9108    2.3403 C   0  0  0  0  0  0  0  0  0  0  0  0
   14.2470    0.9800   -1.5670 H   0  0  0  0  0  0  0  0  0  0  0  0
   15.4118    0.6411   -0.2668 H   0  0  0  0  0  0  0  0  0  0  0  0
   14.2077    1.9198   -0.0703 H   0  0  0  0  0  0  0  0  0  0  0  0
   13.6466   -1.4851   -1.5239 H   0  0  0  0  0  0  0  0  0  0  0  0
   12.8368   -2.1888   -0.1342 H   0  0  0  0  0  0  0  0  0  0  0  0
   14.5827   -1.9019   -0.0744 H   0  0  0  0  0  0  0  0  0  0  0  0
   12.4682    1.3072    1.3099 H   0  0  0  0  0  0  0  0  0  0  0  0
   11.6879   -0.4321    2.8129 H   0  0  0  0  0  0  0  0  0  0  0  0
   11.7079   -1.6792    1.5801 H   0  0  0  0  0  0  0  0  0  0  0  0
   10.0070   -0.4100    0.2655 H   0  0  0  0  0  0  0  0  0  0  0  0
    9.9012    0.7994    1.5406 H   0  0  0  0  0  0  0  0  0  0  0  0
    9.1391   -2.1558    1.7883 H   0  0  0  0  0  0  0  0  0  0  0  0
    8.9676    0.0630    3.9035 H   0  0  0  0  0  0  0  0  0  0  0  0
   10.1182   -1.2850    3.9213 H   0  0  0  0  0  0  0  0  0  0  0  0
    8.4330   -1.6105    4.1231 H   0  0  0  0  0  0  0  0  0  0  0  0
    7.4608    0.4024    1.8351 H   0  0  0  0  0  0  0  0  0  0  0  0
    7.6373   -1.7413   -0.3309 H   0  0  0  0  0  0  0  0  0  0  0  0
    8.0384   -0.0186   -0.4870 H   0  0  0  0  0  0  0  0  0  0  0  0
    5.6262   -0.6238   -1.1876 H   0  0  0  0  0  0  0  0  0  0  0  0
    5.8248    0.6932   -0.0326 H   0  0  0  0  0  0  0  0  0  0  0  0
    4.0029   -2.2940   -0.5765 H   0  0  0  0  0  0  0  0  0  0  0  0
    4.1665   -3.1436    0.9576 H   0  0  0  0  0  0  0  0  0  0  0  0
    5.5190   -3.0611   -0.1759 H   0  0  0  0  0  0  0  0  0  0  0  0
    4.3806    0.6429    1.7607 H   0  0  0  0  0  0  0  0  0  0  0  0
    2.4857   -0.8018   -0.1175 H   0  0  0  0  0  0  0  0  0  0  0  0
    3.4290    0.6483   -0.4368 H   0  0  0  0  0  0  0  0  0  0  0  0
    1.2345    1.3567    0.1754 H   0  0  0  0  0  0  0  0  0  0  0  0
    2.3000    1.7780    1.5177 H   0  0  0  0  0  0  0  0  0  0  0  0
    0.5660   -0.7148    1.2926 H   0  0  0  0  0  0  0  0  0  0  0  0
   -1.5504    0.1307    0.8467 H   0  0  0  0  0  0  0  0  0  0  0  0
   -0.9293    1.7667    0.6138 H   0  0  0  0  0  0  0  0  0  0  0  0
   -2.2331    1.4786    1.7647 H   0  0  0  0  0  0  0  0  0  0  0  0
    0.8681    2.2087    3.8147 H   0  0  0  0  0  0  0  0  0  0  0  0
   -0.8146    2.6653    3.5626 H   0  0  0  0  0  0  0  0  0  0  0  0
    0.3710    2.9235    2.2877 H   0  0  0  0  0  0  0  0  0  0  0  0
   -1.8155    0.4456    3.9873 H   0  0  0  0  0  0  0  0  0  0  0  0
   -0.6510   -1.8366    2.7991 H   0  0  0  0  0  0  0  0  0  0  0  0
   -0.2610   -1.4257    5.1145 H   0  0  0  0  0  0  0  0  0  0  0  0
   -0.1962    0.2615    5.5840 H   0  0  0  0  0  0  0  0  0  0  0  0
    1.9728   -1.0898    5.1003 H   0  0  0  0  0  0  0  0  0  0  0  0
    1.8842    0.6064    4.7224 H   0  0  0  0  0  0  0  0  0  0  0  0
    2.0108   -2.4136    1.6207 H   0  0  0  0  0  0  0  0  0  0  0  0
    2.2565   -2.7991    3.3563 H   0  0  0  0  0  0  0  0  0  0  0  0
    4.3322   -2.1579    4.1717 H   0  0  0  0  0  0  0  0  0  0  0  0
    4.0882   -0.4859    4.6586 H   0  0  0  0  0  0  0  0  0  0  0  0
    6.4349   -1.0374    4.2476 H   0  0  0  0  0  0  0  0  0  0  0  0
    5.8569    0.3311    3.3417 H   0  0  0  0  0  0  0  0  0  0  0  0
    7.2285   -3.0686    3.1772 H   0  0  0  0  0  0  0  0  0  0  0  0
    6.9955   -3.3952    1.4687 H   0  0  0  0  0  0  0  0  0  0  0  0
    5.6300   -3.4550    2.5982 H   0  0  0  0  0  0  0  0  0  0  0  0
  1  2  1  0  0  0  0
  1 32  1  0  0  0  0
  1 33  1  0  0  0  0
  1 34  1  0  0  0  0
  2  3  1  0  0  0  0
  2  4  2  0  0  0  0
  3 35  1  0  0  0  0
  3 36  1  0  0  0  0
  3 37  1  0  0  0  0
  4  5  1  0  0  0  0
  4 38  1  0  0  0  0
  5  6  1  0  0  0  0
  5 39  1  0  0  0  0
  5 40  1  0  0  0  0
  6 41  1  0  0  0  0
  6 42  1  0  0  0  0
  7  8  1  0  0  0  0
  7  6  1  0  0  0  0
  7 43  1  6  0  0  0
  8 44  1  0  0  0  0
  8 45  1  0  0  0  0
  8 46  1  0  0  0  0
  9 10  1  0  0  0  0
  9 30  1  0  0  0  0
  9  7  1  0  0  0  0
  9 47  1  1  0  0  0
 10 11  1  0  0  0  0
 10 48  1  0  0  0  0
 10 49  1  0  0  0  0
 11 12  1  0  0  0  0
 11 50  1  0  0  0  0
 11 51  1  0  0  0  0
 12 14  1  0  0  0  0
 12 30  1  0  0  0  0
 12 13  1  1  0  0  0
 13 52  1  0  0  0  0
 13 53  1  0  0  0  0
 13 54  1  0  0  0  0
 14 15  1  0  0  0  0
 14 27  1  0  0  0  0
 14 55  1  6  0  0  0
 15 16  1  0  0  0  0
 15 56  1  0  0  0  0
 15 57  1  0  0  0  0
 16 17  1  0  0  0  0
 16 58  1  0  0  0  0
 16 59  1  0  0  0  0
 17 18  1  0  0  0  0
 17 25  1  0  0  0  0
 17 60  1  1  0  0  0
 18 21  1  0  0  0  0
 18 19  1  0  0  0  0
 18 20  1  0  0  0  0
 19 61  1  0  0  0  0
 19 62  1  0  0  0  0
 19 63  1  0  0  0  0
 20 64  1  0  0  0  0
 20 65  1  0  0  0  0
 20 66  1  0  0  0  0
 21 23  1  0  0  0  0
 21 22  1  0  0  0  0
 21 67  1  1  0  0  0
 22 68  1  0  0  0  0
 23 24  1  0  0  0  0
 23 69  1  0  0  0  0
 23 70  1  0  0  0  0
 24 71  1  0  0  0  0
 24 72  1  0  0  0  0
 25 24  1  1  0  0  0
 25 26  1  0  0  0  0
 25 27  1  0  0  0  0
 26 73  1  0  0  0  0
 26 74  1  0  0  0  0
 27 26  1  6  0  0  0
 27 28  1  0  0  0  0
 28 29  1  0  0  0  0
 28 75  1  0  0  0  0
 28 76  1  0  0  0  0
 29 30  1  0  0  0  0
 29 77  1  0  0  0  0
 29 78  1  0  0  0  0
 30 31  1  1  0  0  0
 31 79  1  0  0  0  0
 31 80  1  0  0  0  0
 31 81  1  0  0  0  0
M  END
$$$$
