CHEBI:27418
 OpenBabel04252409523D

 18 19  0  0  0  0  0  0  0  0999 V2000
    0.9043   -2.7044    0.1157 O   0  0  0  0  0  0  0  0  0  0  0  0
    0.9182   -1.4807    0.0938 C   0  0  0  0  0  0  0  0  0  0  0  0
    2.2014   -0.7512    0.1049 C   0  0  0  0  0  0  0  0  0  0  0  0
    2.2527    0.5826    0.0799 C   0  0  0  0  0  0  0  0  0  0  0  0
    1.0292    1.4075    0.0396 C   0  0  0  0  0  0  0  0  0  0  0  0
    1.1093    2.6286    0.0157 O   0  0  0  0  0  0  0  0  0  0  0  0
   -0.2713    0.7089    0.0300 C   0  0  0  0  0  0  0  0  0  0  0  0
   -1.4566    1.4541   -0.0054 C   0  0  0  0  0  0  0  0  0  0  0  0
   -2.6905    0.8010   -0.0142 C   0  0  0  0  0  0  0  0  0  0  0  0
   -2.7441   -0.5929    0.0119 C   0  0  0  0  0  0  0  0  0  0  0  0
   -1.5639   -1.3380    0.0470 C   0  0  0  0  0  0  0  0  0  0  0  0
   -0.3249   -0.6852    0.0561 C   0  0  0  0  0  0  0  0  0  0  0  0
    3.0986   -1.3587    0.1343 H   0  0  0  0  0  0  0  0  0  0  0  0
    3.1939    1.1201    0.0879 H   0  0  0  0  0  0  0  0  0  0  0  0
   -1.4222    2.5421   -0.0259 H   0  0  0  0  0  0  0  0  0  0  0  0
   -3.6109    1.3805   -0.0415 H   0  0  0  0  0  0  0  0  0  0  0  0
   -3.7063   -1.1006    0.0051 H   0  0  0  0  0  0  0  0  0  0  0  0
   -1.6132   -2.4254    0.0672 H   0  0  0  0  0  0  0  0  0  0  0  0
  1  2  2  0  0  0  0
  2  3  1  0  0  0  0
  2 12  1  0  0  0  0
  3  4  2  0  0  0  0
  3 13  1  0  0  0  0
  4  5  1  0  0  0  0
  4 14  1  0  0  0  0
  5  6  2  0  0  0  0
  5  7  1  0  0  0  0
  7  8  1  0  0  0  0
  7 12  2  0  0  0  0
  8  9  2  0  0  0  0
  8 15  1  0  0  0  0
  9 10  1  0  0  0  0
  9 16  1  0  0  0  0
 10 11  2  0  0  0  0
 10 17  1  0  0  0  0
 11 12  1  0  0  0  0
 11 18  1  0  0  0  0
M  END
$$$$
