CHEBI:17899
 OpenBabel04242423153D

 73 76  0  0  1  0  0  0  0  0999 V2000
    0.9128    1.3306    0.1155 C   0  0  0  0  0  0  0  0  0  0  0  0
    2.3728    1.1893   -0.3227 C   0  0  0  0  0  0  0  0  0  0  0  0
    2.5320    1.6871   -1.7596 C   0  0  0  0  0  0  0  0  0  0  0  0
    3.2875    1.9355    0.6660 C   0  0  0  0  0  0  0  0  0  0  0  0
    4.7827    1.7709    0.3656 C   0  0  0  0  0  0  0  0  0  0  0  0
    5.6333    2.3905    1.4811 C   0  0  0  0  0  0  0  0  0  0  0  0
    7.1713    2.2875    1.2823 C   0  0  1  0  0  0  0  0  0  0  0  0
    7.5834    0.8127    1.2739 C   0  0  0  0  0  0  0  0  0  0  0  0
    7.6861    3.0857    0.0447 C   0  0  1  0  0  0  0  0  0  0  0  0
    7.2272    4.5632    0.1028 C   0  0  0  0  0  0  0  0  0  0  0  0
    8.3778    5.4205   -0.4108 C   0  0  0  0  0  0  0  0  0  0  0  0
    9.3303    4.4592   -1.1292 C   0  0  1  0  0  0  0  0  0  0  0  0
    8.9726    4.2283   -2.6434 C   0  0  2  0  0  0  0  0  0  0  0  0
    9.2320    5.5048   -3.5052 C   0  0  2  0  0  0  0  0  0  0  0  0
    8.3134    6.5492   -3.1933 O   0  0  0  0  0  0  0  0  0  0  0  0
    9.1292    5.2710   -5.0190 C   0  0  0  0  0  0  0  0  0  0  0  0
    9.9708    4.0940   -5.4125 C   0  0  0  0  0  0  0  0  0  0  0  0
   11.0585    4.2720   -6.1833 C   0  0  0  0  0  0  0  0  0  0  0  0
   12.0608    3.1945   -6.3522 C   0  0  0  0  0  0  0  0  0  0  0  0
   13.0119    3.3620   -7.1103 O   0  0  0  0  0  0  0  0  0  0  0  0
   11.9240    1.9762   -5.4765 C   0  0  0  0  0  0  0  0  0  0  0  0
   10.4529    1.6225   -5.3312 C   0  0  0  0  0  0  0  0  0  0  0  0
    9.5793    2.7747   -4.7481 C   0  0  1  0  0  0  0  0  0  0  0  0
    8.1153    2.3993   -5.0889 C   0  0  0  0  0  0  0  0  0  0  0  0
    9.7708    2.9984   -3.2043 C   0  0  1  0  0  0  0  0  0  0  0  0
    9.4264    1.7610   -2.3630 C   0  0  0  0  0  0  0  0  0  0  0  0
    9.8510    1.9594   -0.9160 C   0  0  0  0  0  0  0  0  0  0  0  0
    9.2286    3.1837   -0.2218 C   0  0  2  0  0  0  0  0  0  0  0  0
   10.0147    3.4061    1.0960 C   0  0  0  0  0  0  0  0  0  0  0  0
    0.2496    0.7695   -0.5514 H   0  0  0  0  0  0  0  0  0  0  0  0
    0.5947    2.3788    0.1063 H   0  0  0  0  0  0  0  0  0  0  0  0
    0.7706    0.9419    1.1295 H   0  0  0  0  0  0  0  0  0  0  0  0
    2.6281    0.1222   -0.2995 H   0  0  0  0  0  0  0  0  0  0  0  0
    2.3657    2.7675   -1.8263 H   0  0  0  0  0  0  0  0  0  0  0  0
    1.8143    1.1929   -2.4234 H   0  0  0  0  0  0  0  0  0  0  0  0
    3.5320    1.4701   -2.1471 H   0  0  0  0  0  0  0  0  0  0  0  0
    3.0869    1.5614    1.6784 H   0  0  0  0  0  0  0  0  0  0  0  0
    3.0355    3.0038    0.6711 H   0  0  0  0  0  0  0  0  0  0  0  0
    5.0178    2.2529   -0.5879 H   0  0  0  0  0  0  0  0  0  0  0  0
    5.0138    0.7050    0.2650 H   0  0  0  0  0  0  0  0  0  0  0  0
    5.3773    1.9000    2.4302 H   0  0  0  0  0  0  0  0  0  0  0  0
    5.3425    3.4390    1.6120 H   0  0  0  0  0  0  0  0  0  0  0  0
    7.6117    2.7362    2.1827 H   0  0  0  0  0  0  0  0  0  0  0  0
    7.3786    0.3416    0.3074 H   0  0  0  0  0  0  0  0  0  0  0  0
    7.0457    0.2496    2.0450 H   0  0  0  0  0  0  0  0  0  0  0  0
    8.6461    0.6964    1.4987 H   0  0  0  0  0  0  0  0  0  0  0  0
    7.2214    2.6420   -0.8439 H   0  0  0  0  0  0  0  0  0  0  0  0
    6.9698    4.8884    1.1165 H   0  0  0  0  0  0  0  0  0  0  0  0
    6.3373    4.6995   -0.5228 H   0  0  0  0  0  0  0  0  0  0  0  0
    8.8961    5.8776    0.4416 H   0  0  0  0  0  0  0  0  0  0  0  0
    8.0077    6.2579   -0.9972 H   0  0  0  0  0  0  0  0  0  0  0  0
   10.3514    4.8615   -1.0916 H   0  0  0  0  0  0  0  0  0  0  0  0
    7.8987    4.0080   -2.6954 H   0  0  0  0  0  0  0  0  0  0  0  0
   10.2358    5.8852   -3.2773 H   0  0  0  0  0  0  0  0  0  0  0  0
    7.4118    6.2063   -3.3181 H   0  0  0  0  0  0  0  0  0  0  0  0
    9.4412    6.1862   -5.5395 H   0  0  0  0  0  0  0  0  0  0  0  0
    8.0861    5.1236   -5.3225 H   0  0  0  0  0  0  0  0  0  0  0  0
   11.3210    5.2255   -6.6289 H   0  0  0  0  0  0  0  0  0  0  0  0
   12.3967    2.1747   -4.5098 H   0  0  0  0  0  0  0  0  0  0  0  0
   12.4520    1.1441   -5.9548 H   0  0  0  0  0  0  0  0  0  0  0  0
   10.3540    0.7025   -4.7482 H   0  0  0  0  0  0  0  0  0  0  0  0
   10.0791    1.3670   -6.3345 H   0  0  0  0  0  0  0  0  0  0  0  0
    7.9470    2.4196   -6.1728 H   0  0  0  0  0  0  0  0  0  0  0  0
    7.3822    3.0744   -4.6390 H   0  0  0  0  0  0  0  0  0  0  0  0
    7.8760    1.3873   -4.7432 H   0  0  0  0  0  0  0  0  0  0  0  0
   10.8378    3.2149   -3.0418 H   0  0  0  0  0  0  0  0  0  0  0  0
    9.9524    0.8766   -2.7324 H   0  0  0  0  0  0  0  0  0  0  0  0
    8.3566    1.5335   -2.4176 H   0  0  0  0  0  0  0  0  0  0  0  0
   10.9455    2.0615   -0.9042 H   0  0  0  0  0  0  0  0  0  0  0  0
    9.6435    1.0398   -0.3650 H   0  0  0  0  0  0  0  0  0  0  0  0
   10.0604    2.4905    1.6942 H   0  0  0  0  0  0  0  0  0  0  0  0
    9.5724    4.1816    1.7284 H   0  0  0  0  0  0  0  0  0  0  0  0
   11.0487    3.7036    0.8863 H   0  0  0  0  0  0  0  0  0  0  0  0
  1  2  1  0  0  0  0
  1 30  1  0  0  0  0
  1 31  1  0  0  0  0
  1 32  1  0  0  0  0
  2  3  1  0  0  0  0
  2  4  1  0  0  0  0
  2 33  1  0  0  0  0
  3 34  1  0  0  0  0
  3 35  1  0  0  0  0
  3 36  1  0  0  0  0
  4  5  1  0  0  0  0
  4 37  1  0  0  0  0
  4 38  1  0  0  0  0
  5  6  1  0  0  0  0
  5 39  1  0  0  0  0
  5 40  1  0  0  0  0
  6 41  1  0  0  0  0
  6 42  1  0  0  0  0
  7  8  1  0  0  0  0
  7  6  1  0  0  0  0
  7 43  1  1  0  0  0
  8 44  1  0  0  0  0
  8 45  1  0  0  0  0
  8 46  1  0  0  0  0
  9 10  1  0  0  0  0
  9 28  1  0  0  0  0
  9  7  1  0  0  0  0
  9 47  1  6  0  0  0
 10 11  1  0  0  0  0
 10 48  1  0  0  0  0
 10 49  1  0  0  0  0
 11 12  1  0  0  0  0
 11 50  1  0  0  0  0
 11 51  1  0  0  0  0
 12 13  1  0  0  0  0
 12 28  1  0  0  0  0
 12 52  1  6  0  0  0
 13 14  1  0  0  0  0
 13 25  1  0  0  0  0
 13 53  1  1  0  0  0
 14 16  1  0  0  0  0
 14 15  1  0  0  0  0
 14 54  1  1  0  0  0
 15 55  1  0  0  0  0
 16 17  1  0  0  0  0
 16 56  1  0  0  0  0
 16 57  1  0  0  0  0
 17 18  2  0  0  0  0
 17 23  1  0  0  0  0
 18 19  1  0  0  0  0
 18 58  1  0  0  0  0
 19 21  1  0  0  0  0
 19 20  2  0  0  0  0
 21 22  1  0  0  0  0
 21 59  1  0  0  0  0
 21 60  1  0  0  0  0
 22 23  1  0  0  0  0
 22 61  1  0  0  0  0
 22 62  1  0  0  0  0
 23 25  1  0  0  0  0
 23 24  1  1  0  0  0
 24 63  1  0  0  0  0
 24 64  1  0  0  0  0
 24 65  1  0  0  0  0
 25 26  1  0  0  0  0
 25 66  1  6  0  0  0
 26 27  1  0  0  0  0
 26 67  1  0  0  0  0
 26 68  1  0  0  0  0
 27 28  1  0  0  0  0
 27 69  1  0  0  0  0
 27 70  1  0  0  0  0
 28 29  1  1  0  0  0
 29 71  1  0  0  0  0
 29 72  1  0  0  0  0
 29 73  1  0  0  0  0
M  END
$$$$
