CHEBI:15580
 OpenBabel04242412503D

 45 45  0  0  1  0  0  0  0  0999 V2000
   -0.5161    3.1807   -2.2754 C   0  0  0  0  0  0  0  0  0  0  0  0
    0.3084    4.4578   -2.2334 C   0  0  0  0  0  0  0  0  0  0  0  0
   -0.3336    5.5414   -1.4025 C   0  0  2  0  0  0  0  0  0  0  0  0
   -1.7212    5.9625   -1.7983 C   0  0  0  0  0  0  0  0  0  0  0  0
    0.5393    6.6661   -1.2043 O   0  0  0  0  0  0  0  0  0  0  0  0
    0.1738    5.9468   -0.0170 C   0  0  2  0  0  0  0  0  0  0  0  0
    1.3609    5.3772    0.6993 C   0  0  0  0  0  0  0  0  0  0  0  0
    0.9400    4.4682    1.8615 C   0  0  0  0  0  0  0  0  0  0  0  0
    2.0464    3.9160    2.7545 C   0  0  0  0  0  0  0  0  0  0  0  0
    1.5134    3.1540    3.9440 C   0  0  0  0  0  0  0  0  0  0  0  0
    3.3625    4.0860    2.5107 C   0  0  0  0  0  0  0  0  0  0  0  0
    4.5218    3.6196    3.3513 C   0  0  0  0  0  0  0  0  0  0  0  0
    5.0498    2.2269    2.9796 C   0  0  0  0  0  0  0  0  0  0  0  0
    5.6567    2.1266    1.5883 C   0  0  0  0  0  0  0  0  0  0  0  0
    4.7252    1.6257    0.5147 C   0  0  0  0  0  0  0  0  0  0  0  0
    6.9706    2.3801    1.4167 C   0  0  0  0  0  0  0  0  0  0  0  0
    7.7396    2.3047    0.1596 C   0  0  0  0  0  0  0  0  0  0  0  0
    8.8529    1.8131    0.1016 O   0  0  0  0  0  0  0  0  0  0  0  0
    7.1373    2.9237   -0.8727 O   0  0  0  0  0  0  0  0  0  0  0  0
    0.0247    2.3985   -2.8178 H   0  0  0  0  0  0  0  0  0  0  0  0
   -1.4679    3.3418   -2.7923 H   0  0  0  0  0  0  0  0  0  0  0  0
   -0.7350    2.8161   -1.2672 H   0  0  0  0  0  0  0  0  0  0  0  0
    0.4429    4.8283   -3.2570 H   0  0  0  0  0  0  0  0  0  0  0  0
    1.3094    4.2123   -1.8676 H   0  0  0  0  0  0  0  0  0  0  0  0
   -2.0161    6.8987   -1.3116 H   0  0  0  0  0  0  0  0  0  0  0  0
   -2.4491    5.1975   -1.5105 H   0  0  0  0  0  0  0  0  0  0  0  0
   -1.7855    6.1152   -2.8804 H   0  0  0  0  0  0  0  0  0  0  0  0
   -0.5098    6.4470    0.6598 H   0  0  0  0  0  0  0  0  0  0  0  0
    1.9444    6.2196    1.0920 H   0  0  0  0  0  0  0  0  0  0  0  0
    2.0169    4.8306    0.0158 H   0  0  0  0  0  0  0  0  0  0  0  0
    0.3672    3.6234    1.4572 H   0  0  0  0  0  0  0  0  0  0  0  0
    0.2479    5.0329    2.5012 H   0  0  0  0  0  0  0  0  0  0  0  0
    0.8843    2.3239    3.6056 H   0  0  0  0  0  0  0  0  0  0  0  0
    0.9061    3.8139    4.5727 H   0  0  0  0  0  0  0  0  0  0  0  0
    2.2952    2.7264    4.5758 H   0  0  0  0  0  0  0  0  0  0  0  0
    3.6753    4.6381    1.6271 H   0  0  0  0  0  0  0  0  0  0  0  0
    4.2525    3.6289    4.4135 H   0  0  0  0  0  0  0  0  0  0  0  0
    5.3291    4.3578    3.2573 H   0  0  0  0  0  0  0  0  0  0  0  0
    4.2547    1.4793    3.0948 H   0  0  0  0  0  0  0  0  0  0  0  0
    5.8116    1.9479    3.7206 H   0  0  0  0  0  0  0  0  0  0  0  0
    4.0290    2.4120    0.2095 H   0  0  0  0  0  0  0  0  0  0  0  0
    4.1441    0.7724    0.8807 H   0  0  0  0  0  0  0  0  0  0  0  0
    5.2551    1.2748   -0.3753 H   0  0  0  0  0  0  0  0  0  0  0  0
    7.6007    2.6250    2.2682 H   0  0  0  0  0  0  0  0  0  0  0  0
    6.3057    3.3653   -0.6203 H   0  0  0  0  0  0  0  0  0  0  0  0
  1  2  1  0  0  0  0
  1 20  1  0  0  0  0
  1 21  1  0  0  0  0
  1 22  1  0  0  0  0
  2 23  1  0  0  0  0
  2 24  1  0  0  0  0
  3  5  1  0  0  0  0
  3  6  1  0  0  0  0
  3  4  1  6  0  0  0
  3  2  1  0  0  0  0
  4 25  1  0  0  0  0
  4 26  1  0  0  0  0
  4 27  1  0  0  0  0
  5  6  1  0  0  0  0
  6  7  1  0  0  0  0
  6 28  1  1  0  0  0
  7  8  1  0  0  0  0
  7 29  1  0  0  0  0
  7 30  1  0  0  0  0
  8  9  1  0  0  0  0
  8 31  1  0  0  0  0
  8 32  1  0  0  0  0
  9 10  1  0  0  0  0
  9 11  2  0  0  0  0
 10 33  1  0  0  0  0
 10 34  1  0  0  0  0
 10 35  1  0  0  0  0
 11 12  1  0  0  0  0
 11 36  1  0  0  0  0
 12 13  1  0  0  0  0
 12 37  1  0  0  0  0
 12 38  1  0  0  0  0
 13 14  1  0  0  0  0
 13 39  1  0  0  0  0
 13 40  1  0  0  0  0
 14 15  1  0  0  0  0
 14 16  2  0  0  0  0
 15 41  1  0  0  0  0
 15 42  1  0  0  0  0
 15 43  1  0  0  0  0
 16 17  1  0  0  0  0
 16 44  1  0  0  0  0
 17 18  2  0  0  0  0
 17 19  1  0  0  0  0
 19 45  1  0  0  0  0
M  END
$$$$
