CHEBI:27405
 OpenBabel04252409503D

 36 36  0  0  1  0  0  0  0  0999 V2000
    6.5827    2.2925    4.7959 N   0  0  0  0  0  0  0  0  0  0  0  0
    5.9097    2.3860    3.7076 C   0  0  0  0  0  0  0  0  0  0  0  0
    5.5036    3.5313    3.1407 N   0  0  0  0  0  0  0  0  0  0  0  0
    5.5964    1.2757    3.0065 N   0  0  0  0  0  0  0  0  0  0  0  0
    6.3072    0.9886    1.7399 C   0  0  2  0  0  0  0  0  0  0  0  0
    5.8800   -0.4015    1.1944 C   0  0  1  0  0  0  0  0  0  0  0  0
    6.1048   -0.4806   -0.2267 O   0  0  0  0  0  0  0  0  0  0  0  0
    6.5994   -1.6078    1.8601 C   0  0  2  0  0  0  0  0  0  0  0  0
    6.0665   -1.9223    3.1850 N   0  0  0  0  0  0  0  0  0  0  0  0
    4.7987   -2.2820    3.4589 C   0  0  0  0  0  0  0  0  0  0  0  0
    3.9168   -2.7436    2.6551 N   0  0  0  0  0  0  0  0  0  0  0  0
    4.4903   -2.0943    4.7533 N   0  0  0  0  0  0  0  0  0  0  0  0
    8.1342   -1.3940    1.9608 C   0  0  1  0  0  0  0  0  0  0  0  0
    8.7551   -1.4121    0.6678 O   0  0  0  0  0  0  0  0  0  0  0  0
    8.4590   -0.0595    2.6605 C   0  0  2  0  0  0  0  0  0  0  0  0
    7.9839   -0.1219    4.0133 O   0  0  0  0  0  0  0  0  0  0  0  0
    7.8460    1.1195    1.8791 C   0  0  1  0  0  0  0  0  0  0  0  0
    8.4488    1.2623    0.5840 O   0  0  0  0  0  0  0  0  0  0  0  0
    6.7372    3.2346    5.1679 H   0  0  0  0  0  0  0  0  0  0  0  0
    5.4487    4.3331    3.7548 H   0  0  0  0  0  0  0  0  0  0  0  0
    4.6538    3.4154    2.5993 H   0  0  0  0  0  0  0  0  0  0  0  0
    5.6940    0.4742    3.6334 H   0  0  0  0  0  0  0  0  0  0  0  0
    5.9814    1.7380    1.0058 H   0  0  0  0  0  0  0  0  0  0  0  0
    4.7958   -0.5073    1.3160 H   0  0  0  0  0  0  0  0  0  0  0  0
    5.6244    0.2590   -0.6423 H   0  0  0  0  0  0  0  0  0  0  0  0
    6.4448   -2.4839    1.2159 H   0  0  0  0  0  0  0  0  0  0  0  0
    6.5519   -1.4312    3.9410 H   0  0  0  0  0  0  0  0  0  0  0  0
    4.3162   -2.8464    1.7220 H   0  0  0  0  0  0  0  0  0  0  0  0
    5.1781   -2.4700    5.3936 H   0  0  0  0  0  0  0  0  0  0  0  0
    3.5753   -2.4922    4.9448 H   0  0  0  0  0  0  0  0  0  0  0  0
    8.5723   -2.2161    2.5409 H   0  0  0  0  0  0  0  0  0  0  0  0
    8.5032   -2.2485    0.2326 H   0  0  0  0  0  0  0  0  0  0  0  0
    9.5477    0.0673    2.6888 H   0  0  0  0  0  0  0  0  0  0  0  0
    7.8587    0.7977    4.3503 H   0  0  0  0  0  0  0  0  0  0  0  0
    8.0886    2.0475    2.4067 H   0  0  0  0  0  0  0  0  0  0  0  0
    8.5964    0.3596    0.2235 H   0  0  0  0  0  0  0  0  0  0  0  0
  1  2  2  0  0  0  0
  1 19  1  0  0  0  0
  2  3  1  0  0  0  0
  2  4  1  0  0  0  0
  3 20  1  0  0  0  0
  3 21  1  0  0  0  0
  4  5  1  0  0  0  0
  4 22  1  0  0  0  0
  5  6  1  0  0  0  0
  5 17  1  0  0  0  0
  5 23  1  6  0  0  0
  6  7  1  0  0  0  0
  6  8  1  0  0  0  0
  6 24  1  1  0  0  0
  7 25  1  0  0  0  0
  8 13  1  0  0  0  0
  8  9  1  0  0  0  0
  8 26  1  6  0  0  0
  9 10  1  0  0  0  0
  9 27  1  0  0  0  0
 10 11  2  0  0  0  0
 10 12  1  0  0  0  0
 11 28  1  0  0  0  0
 12 29  1  0  0  0  0
 12 30  1  0  0  0  0
 13 14  1  0  0  0  0
 13 15  1  0  0  0  0
 13 31  1  1  0  0  0
 14 32  1  0  0  0  0
 15 17  1  0  0  0  0
 15 16  1  0  0  0  0
 15 33  1  1  0  0  0
 16 34  1  0  0  0  0
 17 18  1  0  0  0  0
 17 35  1  1  0  0  0
 18 36  1  0  0  0  0
M  END
$$$$
