CHEBI:4513
 OpenBabel04242410583D

 37 40  0  0  0  0  0  0  0  0999 V2000
    2.4973   -1.1179   -2.2903 O   0  0  0  0  0  0  0  0  0  0  0  0
    1.7411   -0.3383   -1.7110 C   0  0  0  0  0  0  0  0  0  0  0  0
    0.7038    0.2981   -2.3739 O   0  0  0  0  0  0  0  0  0  0  0  0
   -0.1626    1.1790   -1.7014 C   0  0  0  0  0  0  0  0  0  0  0  0
   -1.1791    1.7717   -2.4502 C   0  0  0  0  0  0  0  0  0  0  0  0
   -2.0627    2.6497   -1.8245 C   0  0  0  0  0  0  0  0  0  0  0  0
   -1.9261    2.9213   -0.4629 C   0  0  0  0  0  0  0  0  0  0  0  0
   -0.9004    2.3206    0.2730 C   0  0  0  0  0  0  0  0  0  0  0  0
   -0.0014    1.4433   -0.3452 C   0  0  0  0  0  0  0  0  0  0  0  0
    1.1094    0.8128    0.3614 C   0  0  0  0  0  0  0  0  0  0  0  0
    1.2410    1.1645    1.6885 O   0  0  0  0  0  0  0  0  0  0  0  0
    1.9349   -0.0363   -0.2721 C   0  0  0  0  0  0  0  0  0  0  0  0
    3.0539   -0.7971    0.3926 C   0  0  0  0  0  0  0  0  0  0  0  0
    4.4123   -0.1866    0.1502 C   0  0  0  0  0  0  0  0  0  0  0  0
    5.3355   -0.6838   -0.6887 C   0  0  0  0  0  0  0  0  0  0  0  0
    5.1083   -1.7498   -1.5345 O   0  0  0  0  0  0  0  0  0  0  0  0
    6.6762   -0.1035   -0.7476 C   0  0  0  0  0  0  0  0  0  0  0  0
    7.7248   -0.6574   -1.4904 C   0  0  0  0  0  0  0  0  0  0  0  0
    8.9822   -0.0430   -1.5127 C   0  0  0  0  0  0  0  0  0  0  0  0
    9.2006    1.1380   -0.8023 C   0  0  0  0  0  0  0  0  0  0  0  0
    8.1678    1.6963   -0.0539 C   0  0  0  0  0  0  0  0  0  0  0  0
    6.9268    1.0606   -0.0271 C   0  0  0  0  0  0  0  0  0  0  0  0
    5.9378    1.6344    0.7877 O   0  0  0  0  0  0  0  0  0  0  0  0
    4.7204    1.0052    0.9797 C   0  0  0  0  0  0  0  0  0  0  0  0
    3.8974    1.4371    1.7828 O   0  0  0  0  0  0  0  0  0  0  0  0
   -1.2807    1.5552   -3.5095 H   0  0  0  0  0  0  0  0  0  0  0  0
   -2.8578    3.1233   -2.3949 H   0  0  0  0  0  0  0  0  0  0  0  0
   -2.6145    3.6041    0.0295 H   0  0  0  0  0  0  0  0  0  0  0  0
   -0.8067    2.5470    1.3334 H   0  0  0  0  0  0  0  0  0  0  0  0
    2.1972    1.2349    1.9090 H   0  0  0  0  0  0  0  0  0  0  0  0
    3.0320   -1.8448    0.0641 H   0  0  0  0  0  0  0  0  0  0  0  0
    2.8794   -0.8769    1.4739 H   0  0  0  0  0  0  0  0  0  0  0  0
    4.1742   -1.7265   -1.8400 H   0  0  0  0  0  0  0  0  0  0  0  0
    7.5747   -1.5774   -2.0520 H   0  0  0  0  0  0  0  0  0  0  0  0
    9.7912   -0.4886   -2.0869 H   0  0  0  0  0  0  0  0  0  0  0  0
   10.1764    1.6165   -0.8267 H   0  0  0  0  0  0  0  0  0  0  0  0
    8.3296    2.6105    0.5097 H   0  0  0  0  0  0  0  0  0  0  0  0
  1  2  2  0  0  0  0
  2  3  1  0  0  0  0
  2 12  1  0  0  0  0
  3  4  1  0  0  0  0
  4  5  1  0  0  0  0
  4  9  2  0  0  0  0
  5  6  2  0  0  0  0
  5 26  1  0  0  0  0
  6  7  1  0  0  0  0
  6 27  1  0  0  0  0
  7  8  2  0  0  0  0
  7 28  1  0  0  0  0
  8  9  1  0  0  0  0
  8 29  1  0  0  0  0
  9 10  1  0  0  0  0
 10 11  1  0  0  0  0
 10 12  2  0  0  0  0
 11 30  1  0  0  0  0
 12 13  1  0  0  0  0
 13 14  1  0  0  0  0
 13 31  1  0  0  0  0
 13 32  1  0  0  0  0
 14 15  2  0  0  0  0
 14 24  1  0  0  0  0
 15 16  1  0  0  0  0
 15 17  1  0  0  0  0
 16 33  1  0  0  0  0
 17 18  1  0  0  0  0
 17 22  2  0  0  0  0
 18 19  2  0  0  0  0
 18 34  1  0  0  0  0
 19 20  1  0  0  0  0
 19 35  1  0  0  0  0
 20 21  2  0  0  0  0
 20 36  1  0  0  0  0
 21 22  1  0  0  0  0
 21 37  1  0  0  0  0
 22 23  1  0  0  0  0
 23 24  1  0  0  0  0
 24 25  2  0  0  0  0
M  END
$$$$
