CHEBI:18263
 OpenBabel04252409183D

 69 72  0  0  1  0  0  0  0  0999 V2000
    0.0771   -0.7782    2.4720 N   0  0  0  0  0  0  0  0  0  0  0  0
    0.7110   -0.4348    1.3967 C   0  0  0  0  0  0  0  0  0  0  0  0
    2.1093   -0.7919    1.2565 C   0  0  0  0  0  0  0  0  0  0  0  0
    2.9084   -1.4366    2.1613 N   0  0  0  0  0  0  0  0  0  0  0  0
    4.0943   -1.4438    1.5841 C   0  0  0  0  0  0  0  0  0  0  0  0
    4.0811   -0.8421    0.3427 N   0  0  0  0  0  0  0  0  0  0  0  0
    5.2696   -0.5885   -0.4455 C   0  0  2  0  0  0  0  0  0  0  0  0
    5.8137    0.6755    0.0100 O   0  0  0  0  0  0  0  0  0  0  0  0
    6.0093    1.5138   -1.1371 C   0  0  2  0  0  0  0  0  0  0  0  0
    5.7115    2.9693   -0.7873 C   0  0  0  0  0  0  0  0  0  0  0  0
    5.9138    3.7854   -1.9291 O   0  0  0  0  0  0  0  0  0  0  0  0
    5.7062    5.3705   -1.7473 P   0  0  0  0  0  0  0  0  0  0  0  0
    5.7387    5.8863   -0.3498 O   0  0  0  0  0  0  0  0  0  0  0  0
    6.8755    5.9544   -2.6699 O   0  0  0  0  0  0  0  0  0  0  0  0
    4.3953    5.6743   -2.5857 O   0  0  0  0  0  0  0  0  0  0  0  0
    3.6589    7.0761   -2.5983 P   0  0  0  0  0  0  0  0  0  0  0  0
    2.7719    7.3606   -1.4233 O   0  0  0  0  0  0  0  0  0  0  0  0
    4.8373    8.1565   -2.7246 O   0  0  0  0  0  0  0  0  0  0  0  0
    2.9121    7.1626   -3.9918 O   0  0  0  0  0  0  0  0  0  0  0  0
    3.5539    6.9677   -5.4182 P   0  0  0  0  0  0  0  0  0  0  0  0
    4.8055    6.1754   -5.5319 O   0  0  0  0  0  0  0  0  0  0  0  0
    2.3548    6.3438   -6.2722 O   0  0  0  0  0  0  0  0  0  0  0  0
    3.6433    8.4334   -6.0407 O   0  0  0  0  0  0  0  0  0  0  0  0
    5.1021    0.9822   -2.2430 C   0  0  1  0  0  0  0  0  0  0  0  0
    5.5925    1.2657   -3.5546 O   0  0  0  0  0  0  0  0  0  0  0  0
    5.1154   -0.5136   -1.9702 C   0  0  1  0  0  0  0  0  0  0  0  0
    6.2751   -1.0879   -2.6111 O   0  0  0  0  0  0  0  0  0  0  0  0
    2.7950   -0.4454    0.1118 C   0  0  0  0  0  0  0  0  0  0  0  0
    2.3135    0.1784   -0.9890 N   0  0  0  0  0  0  0  0  0  0  0  0
    1.0560    0.4984   -0.8334 C   0  0  0  0  0  0  0  0  0  0  0  0
    0.2534    0.2850    0.2944 N   0  0  0  0  0  0  0  0  0  0  0  0
   -1.1585    0.7010    0.2674 C   0  0  0  0  0  0  0  0  0  0  0  0
   -1.4114    1.6096   -0.8285 O   0  0  0  0  0  0  0  0  0  0  0  0
   -2.2414    2.7052   -0.3755 C   0  0  2  0  0  0  0  0  0  0  0  0
   -1.4168    3.9975   -0.3296 C   0  0  0  0  0  0  0  0  0  0  0  0
   -0.9027    4.3151   -1.6162 O   0  0  0  0  0  0  0  0  0  0  0  0
   -0.2198    5.7554   -1.7708 P   0  0  0  0  0  0  0  0  0  0  0  0
   -1.1359    6.9219   -1.8846 O   0  0  0  0  0  0  0  0  0  0  0  0
    0.8619    5.8406   -0.6054 O   0  0  0  0  0  0  0  0  0  0  0  0
    0.7041    5.5697   -3.0645 O   0  0  0  0  0  0  0  0  0  0  0  0
   -2.7380    2.3148    1.0079 C   0  0  1  0  0  0  0  0  0  0  0  0
   -3.9216    1.5114    0.9006 O   0  0  0  0  0  0  0  0  0  0  0  0
   -1.6042    1.4559    1.5381 C   0  0  1  0  0  0  0  0  0  0  0  0
   -2.1078    0.6344    2.5941 O   0  0  0  0  0  0  0  0  0  0  0  0
    0.7597   -1.2952    3.0617 H   0  0  0  0  0  0  0  0  0  0  0  0
    5.0020   -1.8435    2.0199 H   0  0  0  0  0  0  0  0  0  0  0  0
    5.9961   -1.3665   -0.1798 H   0  0  0  0  0  0  0  0  0  0  0  0
    7.0589    1.4326   -1.4482 H   0  0  0  0  0  0  0  0  0  0  0  0
    6.3745    3.2933    0.0226 H   0  0  0  0  0  0  0  0  0  0  0  0
    4.6807    3.0811   -0.4312 H   0  0  0  0  0  0  0  0  0  0  0  0
    6.9335    6.9271   -2.6186 H   0  0  0  0  0  0  0  0  0  0  0  0
    4.5369    9.0324   -2.4041 H   0  0  0  0  0  0  0  0  0  0  0  0
    2.3956    5.3682   -6.2729 H   0  0  0  0  0  0  0  0  0  0  0  0
    4.0090    8.4149   -6.9440 H   0  0  0  0  0  0  0  0  0  0  0  0
    4.0945    1.3953   -2.1561 H   0  0  0  0  0  0  0  0  0  0  0  0
    5.7256    2.2345   -3.5962 H   0  0  0  0  0  0  0  0  0  0  0  0
    4.2498   -1.0450   -2.3737 H   0  0  0  0  0  0  0  0  0  0  0  0
    6.3544   -0.5992   -3.4589 H   0  0  0  0  0  0  0  0  0  0  0  0
    0.5463    0.9879   -1.6778 H   0  0  0  0  0  0  0  0  0  0  0  0
   -1.7801   -0.1887    0.1070 H   0  0  0  0  0  0  0  0  0  0  0  0
   -3.0551    2.8051   -1.1017 H   0  0  0  0  0  0  0  0  0  0  0  0
   -0.5656    3.8843    0.3491 H   0  0  0  0  0  0  0  0  0  0  0  0
   -2.0425    4.8259    0.0209 H   0  0  0  0  0  0  0  0  0  0  0  0
    1.4573    6.6214   -0.7195 H   0  0  0  0  0  0  0  0  0  0  0  0
    0.2459    5.9505   -3.8379 H   0  0  0  0  0  0  0  0  0  0  0  0
   -2.9808    3.1623    1.6554 H   0  0  0  0  0  0  0  0  0  0  0  0
   -3.9506    0.9938    1.7345 H   0  0  0  0  0  0  0  0  0  0  0  0
   -0.7961    2.0852    1.9299 H   0  0  0  0  0  0  0  0  0  0  0  0
   -1.3806   -0.0042    2.8030 H   0  0  0  0  0  0  0  0  0  0  0  0
  1  2  2  0  0  0  0
  1 45  1  0  0  0  0
  2  3  1  0  0  0  0
  2 31  1  0  0  0  0
  3  4  1  0  0  0  0
  3 28  2  0  0  0  0
  4  5  2  0  0  0  0
  5  6  1  0  0  0  0
  5 46  1  0  0  0  0
  6  7  1  0  0  0  0
  6 28  1  0  0  0  0
  7  8  1  0  0  0  0
  7 26  1  0  0  0  0
  7 47  1  1  0  0  0
  8  9  1  0  0  0  0
  9 10  1  0  0  0  0
  9 24  1  0  0  0  0
  9 48  1  6  0  0  0
 10 11  1  0  0  0  0
 10 49  1  0  0  0  0
 10 50  1  0  0  0  0
 11 12  1  0  0  0  0
 12 13  2  0  0  0  0
 12 14  1  0  0  0  0
 12 15  1  0  0  0  0
 14 51  1  0  0  0  0
 15 16  1  0  0  0  0
 16 17  2  0  0  0  0
 16 18  1  0  0  0  0
 16 19  1  0  0  0  0
 18 52  1  0  0  0  0
 19 20  1  0  0  0  0
 20 21  2  0  0  0  0
 20 22  1  0  0  0  0
 20 23  1  0  0  0  0
 22 53  1  0  0  0  0
 23 54  1  0  0  0  0
 24 25  1  0  0  0  0
 24 26  1  0  0  0  0
 24 55  1  1  0  0  0
 25 56  1  0  0  0  0
 26 27  1  0  0  0  0
 26 57  1  6  0  0  0
 27 58  1  0  0  0  0
 28 29  1  0  0  0  0
 29 30  2  0  0  0  0
 30 31  1  0  0  0  0
 30 59  1  0  0  0  0
 31 32  1  0  0  0  0
 32 33  1  0  0  0  0
 32 43  1  0  0  0  0
 32 60  1  0  0  0  0
 33 34  1  0  0  0  0
 34 35  1  0  0  0  0
 34 41  1  0  0  0  0
 34 61  1  6  0  0  0
 35 36  1  0  0  0  0
 35 62  1  0  0  0  0
 35 63  1  0  0  0  0
 36 37  1  0  0  0  0
 37 38  2  0  0  0  0
 37 39  1  0  0  0  0
 37 40  1  0  0  0  0
 39 64  1  0  0  0  0
 40 65  1  0  0  0  0
 41 42  1  0  0  0  0
 41 43  1  0  0  0  0
 41 66  1  1  0  0  0
 42 67  1  0  0  0  0
 43 44  1  0  0  0  0
 43 68  1  1  0  0  0
 44 69  1  0  0  0  0
M  END
$$$$
