CHEBI:4821
 OpenBabel04242411013D

 84 91  0  0  1  0  0  0  0  0999 V2000
    2.6016   -5.8481   -1.5341 C   0  0  0  0  0  0  0  0  0  0  0  0
    1.2060   -6.4854   -1.5920 C   0  0  0  0  0  0  0  0  0  0  0  0
    1.0105   -7.0559   -3.0058 C   0  0  0  0  0  0  0  0  0  0  0  0
    0.9581   -7.5548   -0.4828 C   0  0  1  0  0  0  0  0  0  0  0  0
   -0.3917   -8.0965   -0.6156 N   0  0  0  0  0  0  0  0  0  0  0  0
   -0.8762   -9.1208    0.1624 C   0  0  0  0  0  0  0  0  0  0  0  0
   -0.2416   -9.5803    1.1078 O   0  0  0  0  0  0  0  0  0  0  0  0
   -2.2605   -9.6411   -0.2433 C   0  0  2  0  0  0  0  0  0  0  0  0
   -3.3364   -8.8254    0.4284 C   0  0  0  0  0  0  0  0  0  0  0  0
   -4.3158   -9.3871    1.1676 C   0  0  0  0  0  0  0  0  0  0  0  0
   -5.3192   -8.5468    1.8738 C   0  0  0  0  0  0  0  0  0  0  0  0
   -5.3462   -7.1519    2.0218 C   0  0  0  0  0  0  0  0  0  0  0  0
   -6.3555   -6.5206    2.7647 C   0  0  0  0  0  0  0  0  0  0  0  0
   -7.3644   -7.2505    3.4080 C   0  0  0  0  0  0  0  0  0  0  0  0
   -7.3340   -8.6360    3.2480 C   0  0  0  0  0  0  0  0  0  0  0  0
   -8.1509   -9.6364    3.7297 N   0  0  0  0  0  0  0  0  0  0  0  0
   -7.7457  -10.8592    3.2432 C   0  0  0  0  0  0  0  0  0  0  0  0
   -6.6475  -10.6394    2.4450 C   0  0  0  0  0  0  0  0  0  0  0  0
   -6.3583   -9.2608    2.4870 C   0  0  0  0  0  0  0  0  0  0  0  0
   -5.8264  -11.5296    1.5887 C   0  0  0  0  0  0  0  0  0  0  0  0
   -4.3885  -10.9413    1.3512 C   0  0  1  0  0  0  0  0  0  0  0  0
   -3.7041  -11.6484    0.2181 N   0  0  0  0  0  0  0  0  0  0  0  0
   -3.6605  -13.1013    0.4081 C   0  0  0  0  0  0  0  0  0  0  0  0
   -2.3232  -11.1417    0.1074 C   0  0  0  0  0  0  0  0  0  0  0  0
    1.9140   -8.6170   -0.6052 O   0  0  0  0  0  0  0  0  0  0  0  0
    2.5943   -8.7673    0.6459 C   0  0  1  0  0  0  0  0  0  0  0  0
    2.2627   -9.9970    1.2383 O   0  0  0  0  0  0  0  0  0  0  0  0
    4.1197   -8.6664    0.4221 C   0  0  2  0  0  0  0  0  0  0  0  0
    4.8353   -9.9379   -0.0329 C   0  0  0  0  0  0  0  0  0  0  0  0
    6.2990   -9.6102    0.2723 C   0  0  0  0  0  0  0  0  0  0  0  0
    6.2344   -8.8021    1.5672 C   0  0  0  0  0  0  0  0  0  0  0  0
    4.8836   -8.2804    1.6061 N   0  0  0  0  0  0  0  0  0  0  0  0
    4.4011   -7.4723    2.6123 C   0  0  0  0  0  0  0  0  0  0  0  0
    5.1451   -6.9938    3.4686 O   0  0  0  0  0  0  0  0  0  0  0  0
    2.8551   -7.4125    2.7564 C   0  0  2  0  0  0  0  0  0  0  0  0
    2.5072   -8.3807    3.9104 C   0  0  0  0  0  0  0  0  0  0  0  0
    1.0539   -8.5503    4.2881 C   0  0  0  0  0  0  0  0  0  0  0  0
    0.6046   -9.8145    4.7040 C   0  0  0  0  0  0  0  0  0  0  0  0
   -0.7167  -10.0081    5.1092 C   0  0  0  0  0  0  0  0  0  0  0  0
   -1.6067   -8.9384    5.1102 C   0  0  0  0  0  0  0  0  0  0  0  0
   -1.1710   -7.6752    4.7163 C   0  0  0  0  0  0  0  0  0  0  0  0
    0.1540   -7.4789    4.3181 C   0  0  0  0  0  0  0  0  0  0  0  0
    2.1545   -7.7216    1.5054 N   0  0  0  0  0  0  0  0  0  0  0  0
    1.2051   -6.9359    0.9017 C   0  0  0  0  0  0  0  0  0  0  0  0
    0.6731   -5.9367    1.3583 O   0  0  0  0  0  0  0  0  0  0  0  0
    2.6687   -5.0167   -2.2451 H   0  0  0  0  0  0  0  0  0  0  0  0
    3.3808   -6.5662   -1.8038 H   0  0  0  0  0  0  0  0  0  0  0  0
    2.8287   -5.4418   -0.5443 H   0  0  0  0  0  0  0  0  0  0  0  0
    0.4744   -5.6764   -1.4572 H   0  0  0  0  0  0  0  0  0  0  0  0
    1.6953   -7.8879   -3.2004 H   0  0  0  0  0  0  0  0  0  0  0  0
    1.1973   -6.2846   -3.7616 H   0  0  0  0  0  0  0  0  0  0  0  0
   -0.0123   -7.4130   -3.1588 H   0  0  0  0  0  0  0  0  0  0  0  0
   -1.0612   -7.5634   -1.1530 H   0  0  0  0  0  0  0  0  0  0  0  0
   -2.3793   -9.5275   -1.3290 H   0  0  0  0  0  0  0  0  0  0  0  0
   -3.2802   -7.7519    0.2872 H   0  0  0  0  0  0  0  0  0  0  0  0
   -4.5808   -6.5299    1.5684 H   0  0  0  0  0  0  0  0  0  0  0  0
   -6.3500   -5.4358    2.8514 H   0  0  0  0  0  0  0  0  0  0  0  0
   -8.1339   -6.7554    3.9898 H   0  0  0  0  0  0  0  0  0  0  0  0
   -8.9461   -9.4863    4.3345 H   0  0  0  0  0  0  0  0  0  0  0  0
   -8.2880  -11.7614    3.4921 H   0  0  0  0  0  0  0  0  0  0  0  0
   -6.3419  -11.6556    0.6278 H   0  0  0  0  0  0  0  0  0  0  0  0
   -5.7541  -12.5164    2.0615 H   0  0  0  0  0  0  0  0  0  0  0  0
   -3.8253  -11.1421    2.2777 H   0  0  0  0  0  0  0  0  0  0  0  0
   -4.6609  -13.5409    0.3518 H   0  0  0  0  0  0  0  0  0  0  0  0
   -3.2040  -13.3809    1.3642 H   0  0  0  0  0  0  0  0  0  0  0  0
   -3.0866  -13.5768   -0.3962 H   0  0  0  0  0  0  0  0  0  0  0  0
   -1.7943  -11.6811   -0.6907 H   0  0  0  0  0  0  0  0  0  0  0  0
   -1.7805  -11.3689    1.0348 H   0  0  0  0  0  0  0  0  0  0  0  0
    1.3208   -9.8843    1.4920 H   0  0  0  0  0  0  0  0  0  0  0  0
    4.3211   -7.8755   -0.3099 H   0  0  0  0  0  0  0  0  0  0  0  0
    4.6645  -10.1650   -1.0888 H   0  0  0  0  0  0  0  0  0  0  0  0
    4.5325  -10.8074    0.5626 H   0  0  0  0  0  0  0  0  0  0  0  0
    6.7142   -8.9931   -0.5330 H   0  0  0  0  0  0  0  0  0  0  0  0
    6.9213  -10.5046    0.3691 H   0  0  0  0  0  0  0  0  0  0  0  0
    6.9614   -7.9852    1.5912 H   0  0  0  0  0  0  0  0  0  0  0  0
    6.3802   -9.4349    2.4491 H   0  0  0  0  0  0  0  0  0  0  0  0
    2.6008   -6.3834    3.0357 H   0  0  0  0  0  0  0  0  0  0  0  0
    3.0343   -8.0551    4.8182 H   0  0  0  0  0  0  0  0  0  0  0  0
    2.9255   -9.3686    3.6735 H   0  0  0  0  0  0  0  0  0  0  0  0
    1.2861  -10.6628    4.7148 H   0  0  0  0  0  0  0  0  0  0  0  0
   -1.0483  -10.9934    5.4246 H   0  0  0  0  0  0  0  0  0  0  0  0
   -2.6374   -9.0862    5.4203 H   0  0  0  0  0  0  0  0  0  0  0  0
   -1.8635   -6.8378    4.7207 H   0  0  0  0  0  0  0  0  0  0  0  0
    0.4639   -6.4777    4.0291 H   0  0  0  0  0  0  0  0  0  0  0  0
  1  2  1  0  0  0  0
  1 46  1  0  0  0  0
  1 47  1  0  0  0  0
  1 48  1  0  0  0  0
  2  3  1  0  0  0  0
  2 49  1  0  0  0  0
  3 50  1  0  0  0  0
  3 51  1  0  0  0  0
  3 52  1  0  0  0  0
  4  2  1  6  0  0  0
  4  5  1  0  0  0  0
  4 25  1  0  0  0  0
  4 44  1  0  0  0  0
  5  6  1  0  0  0  0
  5 53  1  0  0  0  0
  6  7  2  0  0  0  0
  8  9  1  0  0  0  0
  8 24  1  0  0  0  0
  8  6  1  0  0  0  0
  8 54  1  6  0  0  0
  9 10  2  0  0  0  0
  9 55  1  0  0  0  0
 10 11  1  0  0  0  0
 10 21  1  0  0  0  0
 11 12  1  0  0  0  0
 11 19  2  0  0  0  0
 12 13  2  0  0  0  0
 12 56  1  0  0  0  0
 13 14  1  0  0  0  0
 13 57  1  0  0  0  0
 14 15  2  0  0  0  0
 14 58  1  0  0  0  0
 15 16  1  0  0  0  0
 15 19  1  0  0  0  0
 16 17  1  0  0  0  0
 16 59  1  0  0  0  0
 17 18  2  0  0  0  0
 17 60  1  0  0  0  0
 18 19  1  0  0  0  0
 18 20  1  0  0  0  0
 20 21  1  0  0  0  0
 20 61  1  0  0  0  0
 20 62  1  0  0  0  0
 21 22  1  0  0  0  0
 21 63  1  1  0  0  0
 22 23  1  0  0  0  0
 22 24  1  0  0  0  0
 23 64  1  0  0  0  0
 23 65  1  0  0  0  0
 23 66  1  0  0  0  0
 24 67  1  0  0  0  0
 24 68  1  0  0  0  0
 25 26  1  0  0  0  0
 26 27  1  1  0  0  0
 26 28  1  0  0  0  0
 26 43  1  0  0  0  0
 27 69  1  0  0  0  0
 28 29  1  0  0  0  0
 28 32  1  0  0  0  0
 28 70  1  6  0  0  0
 29 30  1  0  0  0  0
 29 71  1  0  0  0  0
 29 72  1  0  0  0  0
 30 31  1  0  0  0  0
 30 73  1  0  0  0  0
 30 74  1  0  0  0  0
 31 32  1  0  0  0  0
 31 75  1  0  0  0  0
 31 76  1  0  0  0  0
 32 33  1  0  0  0  0
 33 34  2  0  0  0  0
 33 35  1  0  0  0  0
 35 36  1  0  0  0  0
 35 43  1  0  0  0  0
 35 77  1  1  0  0  0
 36 37  1  0  0  0  0
 36 78  1  0  0  0  0
 36 79  1  0  0  0  0
 37 38  1  0  0  0  0
 37 42  2  0  0  0  0
 38 39  2  0  0  0  0
 38 80  1  0  0  0  0
 39 40  1  0  0  0  0
 39 81  1  0  0  0  0
 40 41  2  0  0  0  0
 40 82  1  0  0  0  0
 41 42  1  0  0  0  0
 41 83  1  0  0  0  0
 42 84  1  0  0  0  0
 43 44  1  0  0  0  0
 44 45  2  0  0  0  0
M  END
$$$$
