CHEBI:10216
 OpenBabel04242411423D

 39 41  0  0  1  0  0  0  0  0999 V2000
    0.9850   -0.6966    0.0440 C   0  0  0  0  0  0  0  0  0  0  0  0
    2.4483   -0.3953   -0.0856 C   0  0  0  0  0  0  0  0  0  0  0  0
    2.9098    0.8398   -0.3773 C   0  0  0  0  0  0  0  0  0  0  0  0
    4.3893    1.1417   -0.4872 C   0  0  0  0  0  0  0  0  0  0  0  0
    5.2493   -0.1470   -0.3873 C   0  0  1  0  0  0  0  0  0  0  0  0
    4.6981   -0.9618    0.7954 C   0  0  0  0  0  0  0  0  0  0  0  0
    3.4251   -1.5498    0.1558 C   0  0  2  0  0  0  0  0  0  0  0  0
    4.0015   -2.1706   -1.1638 C   0  0  0  0  0  0  0  0  0  0  0  0
    4.6951   -3.5161   -0.8565 C   0  0  0  0  0  0  0  0  0  0  0  0
    2.9319   -2.4613   -2.2293 C   0  0  0  0  0  0  0  0  0  0  0  0
    4.9753   -1.0535   -1.6423 C   0  0  2  0  0  0  0  0  0  0  0  0
    6.3514   -1.4139   -2.2002 C   0  0  0  0  0  0  0  0  0  0  0  0
    7.2066   -0.2137   -1.8051 C   0  0  0  0  0  0  0  0  0  0  0  0
    6.7800    0.0427   -0.3566 C   0  0  1  0  0  0  0  0  0  0  0  0
    7.2930    1.3674    0.1829 C   0  0  0  0  0  0  0  0  0  0  0  0
    0.3663    0.1786   -0.1807 H   0  0  0  0  0  0  0  0  0  0  0  0
    0.7545   -1.0156    1.0654 H   0  0  0  0  0  0  0  0  0  0  0  0
    0.6895   -1.4949   -0.6427 H   0  0  0  0  0  0  0  0  0  0  0  0
    2.2244    1.6681   -0.5343 H   0  0  0  0  0  0  0  0  0  0  0  0
    4.6402    1.8355    0.3237 H   0  0  0  0  0  0  0  0  0  0  0  0
    4.5842    1.6603   -1.4332 H   0  0  0  0  0  0  0  0  0  0  0  0
    4.4893   -0.3419    1.6761 H   0  0  0  0  0  0  0  0  0  0  0  0
    5.3861   -1.7472    1.1221 H   0  0  0  0  0  0  0  0  0  0  0  0
    2.9766   -2.3009    0.8153 H   0  0  0  0  0  0  0  0  0  0  0  0
    5.5421   -3.4168   -0.1721 H   0  0  0  0  0  0  0  0  0  0  0  0
    5.0718   -3.9854   -1.7726 H   0  0  0  0  0  0  0  0  0  0  0  0
    3.9895   -4.2182   -0.3974 H   0  0  0  0  0  0  0  0  0  0  0  0
    2.4042   -1.5578   -2.5504 H   0  0  0  0  0  0  0  0  0  0  0  0
    2.1866   -3.1705   -1.8521 H   0  0  0  0  0  0  0  0  0  0  0  0
    3.3858   -2.8991   -3.1259 H   0  0  0  0  0  0  0  0  0  0  0  0
    4.4793   -0.4490   -2.4159 H   0  0  0  0  0  0  0  0  0  0  0  0
    6.3257   -1.5577   -3.2849 H   0  0  0  0  0  0  0  0  0  0  0  0
    6.7739   -2.3168   -1.7515 H   0  0  0  0  0  0  0  0  0  0  0  0
    6.9779    0.6483   -2.4436 H   0  0  0  0  0  0  0  0  0  0  0  0
    8.2757   -0.4307   -1.8903 H   0  0  0  0  0  0  0  0  0  0  0  0
    7.2257   -0.7512    0.2593 H   0  0  0  0  0  0  0  0  0  0  0  0
    6.9663    2.2139   -0.4287 H   0  0  0  0  0  0  0  0  0  0  0  0
    8.3883    1.3737    0.1952 H   0  0  0  0  0  0  0  0  0  0  0  0
    6.9480    1.5259    1.2098 H   0  0  0  0  0  0  0  0  0  0  0  0
  1  2  1  0  0  0  0
  1 16  1  0  0  0  0
  1 17  1  0  0  0  0
  1 18  1  0  0  0  0
  2  3  2  0  0  0  0
  2  7  1  0  0  0  0
  3  4  1  0  0  0  0
  3 19  1  0  0  0  0
  4 20  1  0  0  0  0
  4 21  1  0  0  0  0
  5  4  1  6  0  0  0
  5  6  1  0  0  0  0
  5 11  1  0  0  0  0
  5 14  1  0  0  0  0
  6  7  1  0  0  0  0
  6 22  1  0  0  0  0
  6 23  1  0  0  0  0
  7  8  1  0  0  0  0
  7 24  1  1  0  0  0
  8 11  1  0  0  0  0
  8  9  1  0  0  0  0
  8 10  1  0  0  0  0
  9 25  1  0  0  0  0
  9 26  1  0  0  0  0
  9 27  1  0  0  0  0
 10 28  1  0  0  0  0
 10 29  1  0  0  0  0
 10 30  1  0  0  0  0
 11 12  1  0  0  0  0
 11 31  1  6  0  0  0
 12 13  1  0  0  0  0
 12 32  1  0  0  0  0
 12 33  1  0  0  0  0
 13 14  1  0  0  0  0
 13 34  1  0  0  0  0
 13 35  1  0  0  0  0
 14 15  1  0  0  0  0
 14 36  1  1  0  0  0
 15 37  1  0  0  0  0
 15 38  1  0  0  0  0
 15 39  1  0  0  0  0
M  END
$$$$
