CHEBI:15836
 OpenBabel04242413213D

 21 20  0  0  1  0  0  0  0  0999 V2000
    1.6062    0.4157   -1.8159 N   0  0  0  0  0  0  0  0  0  0  0  0
    2.1307    0.2275   -0.4261 C   0  0  1  0  0  0  0  0  0  0  0  0
    2.5388   -1.2220   -0.1744 C   0  0  0  0  0  0  0  0  0  0  0  0
    2.9197   -1.4049    1.2724 C   0  0  0  0  0  0  0  0  0  0  0  0
    2.4133   -0.7984    2.2042 O   0  0  0  0  0  0  0  0  0  0  0  0
    3.8979   -2.3143    1.3996 O   0  0  0  0  0  0  0  0  0  0  0  0
    4.5858   -2.5613    2.8168 P   0  0  0  0  0  0  0  0  0  0  0  0
    3.7419   -3.0670    3.9339 O   0  0  0  0  0  0  0  0  0  0  0  0
    5.7933   -3.5504    2.4617 O   0  0  0  0  0  0  0  0  0  0  0  0
    5.3828   -1.2118    3.1200 O   0  0  0  0  0  0  0  0  0  0  0  0
    3.3348    1.1740   -0.2444 C   0  0  0  0  0  0  0  0  0  0  0  0
    4.2113    1.0547    0.5961 O   0  0  0  0  0  0  0  0  0  0  0  0
    3.3010    2.1844   -1.1516 O   0  0  0  0  0  0  0  0  0  0  0  0
    0.7074   -0.0714   -1.8860 H   0  0  0  0  0  0  0  0  0  0  0  0
    2.2182   -0.0845   -2.4705 H   0  0  0  0  0  0  0  0  0  0  0  0
    1.3537    0.5600    0.2714 H   0  0  0  0  0  0  0  0  0  0  0  0
    3.3939   -1.4881   -0.8077 H   0  0  0  0  0  0  0  0  0  0  0  0
    1.7159   -1.9113   -0.3935 H   0  0  0  0  0  0  0  0  0  0  0  0
    6.2504   -3.8284    3.2754 H   0  0  0  0  0  0  0  0  0  0  0  0
    4.7791   -0.4701    3.3271 H   0  0  0  0  0  0  0  0  0  0  0  0
    2.5105    2.0162   -1.7233 H   0  0  0  0  0  0  0  0  0  0  0  0
  1  2  1  0  0  0  0
  1 14  1  0  0  0  0
  1 15  1  0  0  0  0
  2  3  1  0  0  0  0
  2 11  1  0  0  0  0
  2 16  1  1  0  0  0
  3  4  1  0  0  0  0
  3 17  1  0  0  0  0
  3 18  1  0  0  0  0
  4  5  2  0  0  0  0
  4  6  1  0  0  0  0
  6  7  1  0  0  0  0
  7  8  2  0  0  0  0
  7  9  1  0  0  0  0
  7 10  1  0  0  0  0
  9 19  1  0  0  0  0
 10 20  1  0  0  0  0
 11 12  2  0  0  0  0
 11 13  1  0  0  0  0
 13 21  1  0  0  0  0
M  END
$$$$
