CHEBI:16488
 OpenBabel04242414333D

 27 26  0  0  1  0  0  0  0  0999 V2000
    2.0790    5.6108    4.8425 N   0  0  0  0  0  0  0  0  0  0  0  0
    1.0283    4.6345    4.4433 C   0  0  2  0  0  0  0  0  0  0  0  0
    0.6500    4.9640    2.9908 C   0  0  0  0  0  0  0  0  0  0  0  0
   -0.1929    3.9099    2.2669 C   0  0  0  0  0  0  0  0  0  0  0  0
    0.5254    2.5591    2.1240 C   0  0  0  0  0  0  0  0  0  0  0  0
   -0.3602    1.4148    1.6179 C   0  0  2  0  0  0  0  0  0  0  0  0
   -0.8902    1.6242    0.2488 N   0  0  0  0  0  0  0  0  0  0  0  0
   -1.5304    1.1822    2.5848 C   0  0  0  0  0  0  0  0  0  0  0  0
   -1.4876    1.4098    3.7867 O   0  0  0  0  0  0  0  0  0  0  0  0
   -2.6224    0.7145    1.9313 O   0  0  0  0  0  0  0  0  0  0  0  0
   -0.1634    4.7564    5.4135 C   0  0  0  0  0  0  0  0  0  0  0  0
   -0.3327    5.7289    6.1417 O   0  0  0  0  0  0  0  0  0  0  0  0
   -1.0075    3.7057    5.4376 O   0  0  0  0  0  0  0  0  0  0  0  0
    2.3082    5.4458    5.8260 H   0  0  0  0  0  0  0  0  0  0  0  0
    1.6412    6.5384    4.8636 H   0  0  0  0  0  0  0  0  0  0  0  0
    1.4741    3.6439    4.5559 H   0  0  0  0  0  0  0  0  0  0  0  0
    0.0952    5.9120    2.9659 H   0  0  0  0  0  0  0  0  0  0  0  0
    1.5611    5.1231    2.3981 H   0  0  0  0  0  0  0  0  0  0  0  0
   -0.4271    4.2941    1.2667 H   0  0  0  0  0  0  0  0  0  0  0  0
   -1.1533    3.8045    2.7798 H   0  0  0  0  0  0  0  0  0  0  0  0
    0.9258    2.2470    3.0945 H   0  0  0  0  0  0  0  0  0  0  0  0
    1.3910    2.6780    1.4612 H   0  0  0  0  0  0  0  0  0  0  0  0
    0.2206    0.4849    1.6110 H   0  0  0  0  0  0  0  0  0  0  0  0
   -1.3062    2.5587    0.1865 H   0  0  0  0  0  0  0  0  0  0  0  0
   -0.0928    1.6655   -0.3938 H   0  0  0  0  0  0  0  0  0  0  0  0
   -2.3881    0.6936    0.9692 H   0  0  0  0  0  0  0  0  0  0  0  0
   -0.8440    2.9298    4.8556 H   0  0  0  0  0  0  0  0  0  0  0  0
  1 14  1  0  0  0  0
  1 15  1  0  0  0  0
  2 11  1  0  0  0  0
  2  3  1  0  0  0  0
  2  1  1  0  0  0  0
  2 16  1  1  0  0  0
  3  4  1  0  0  0  0
  3 17  1  0  0  0  0
  3 18  1  0  0  0  0
  4  5  1  0  0  0  0
  4 19  1  0  0  0  0
  4 20  1  0  0  0  0
  5 21  1  0  0  0  0
  5 22  1  0  0  0  0
  6  8  1  0  0  0  0
  6  7  1  0  0  0  0
  6  5  1  0  0  0  0
  6 23  1  6  0  0  0
  7 24  1  0  0  0  0
  7 25  1  0  0  0  0
  8  9  2  0  0  0  0
  8 10  1  0  0  0  0
 10 26  1  0  0  0  0
 11 12  2  0  0  0  0
 11 13  1  0  0  0  0
 13 27  1  0  0  0  0
M  END
$$$$
