CHEBI:15755
 OpenBabel04242413123D

 68 71  0  0  1  0  0  0  0  0999 V2000
    2.8541   -0.8741    3.0817 C   0  0  0  0  0  0  0  0  0  0  0  0
    3.7442   -1.4392    1.9740 C   0  0  2  0  0  0  0  0  0  0  0  0
    4.9666   -0.4997    1.7620 C   0  0  0  0  0  0  0  0  0  0  0  0
    4.6218    0.9075    1.2714 C   0  0  0  0  0  0  0  0  0  0  0  0
    5.9246    1.6659    1.0253 C   0  0  0  0  0  0  0  0  0  0  0  0
    6.3777    2.2915    2.0243 O   0  0  0  0  0  0  0  0  0  0  0  0
    6.3725    1.5841   -0.1529 O   0  5  0  0  0  0  0  0  0  0  0  0
    2.9891   -1.7128    0.6439 C   0  0  1  0  0  0  0  0  0  0  0  0
    3.9385   -2.3317   -0.4154 C   0  0  0  0  0  0  0  0  0  0  0  0
    3.1029   -3.2918   -1.2558 C   0  0  0  0  0  0  0  0  0  0  0  0
    1.6426   -2.9389   -0.9452 C   0  0  1  0  0  0  0  0  0  0  0  0
    1.1044   -1.7202   -1.7926 C   0  0  2  0  0  0  0  0  0  0  0  0
    0.9215   -2.0558   -3.2967 C   0  0  2  0  0  0  0  0  0  0  0  0
    2.1363   -2.4269   -3.9337 O   0  0  0  0  0  0  0  0  0  0  0  0
    0.3686   -0.8753   -4.0950 C   0  0  0  0  0  0  0  0  0  0  0  0
   -0.9614   -0.4030   -3.5255 C   0  0  2  0  0  0  0  0  0  0  0  0
   -1.5968    0.6716   -4.4170 C   0  0  0  0  0  0  0  0  0  0  0  0
   -2.9855    1.0549   -3.9088 C   0  0  2  0  0  0  0  0  0  0  0  0
   -3.4841    2.1632   -4.6526 O   0  0  0  0  0  0  0  0  0  0  0  0
   -2.9849    1.4230   -2.4282 C   0  0  0  0  0  0  0  0  0  0  0  0
   -2.2788    0.3815   -1.5549 C   0  0  0  0  0  0  0  0  0  0  0  0
   -0.8368    0.0389   -2.0377 C   0  0  1  0  0  0  0  0  0  0  0  0
    0.0494    1.3010   -1.8723 C   0  0  0  0  0  0  0  0  0  0  0  0
   -0.2380   -1.1681   -1.2090 C   0  0  1  0  0  0  0  0  0  0  0  0
   -0.0751   -0.8335    0.2864 C   0  0  0  0  0  0  0  0  0  0  0  0
    0.4115   -2.0189    1.1095 C   0  0  1  0  0  0  0  0  0  0  0  0
   -0.6430   -2.9928    1.1483 O   0  0  0  0  0  0  0  0  0  0  0  0
    1.7292   -2.6462    0.6003 C   0  0  2  0  0  0  0  0  0  0  0  0
    1.9856   -3.9486    1.4047 C   0  0  0  0  0  0  0  0  0  0  0  0
    3.4563   -0.5103    3.9218 H   0  0  0  0  0  0  0  0  0  0  0  0
    2.1949   -1.6455    3.4874 H   0  0  0  0  0  0  0  0  0  0  0  0
    2.2402   -0.0421    2.7229 H   0  0  0  0  0  0  0  0  0  0  0  0
    4.1503   -2.3905    2.3425 H   0  0  0  0  0  0  0  0  0  0  0  0
    5.6744   -0.9658    1.0657 H   0  0  0  0  0  0  0  0  0  0  0  0
    5.5152   -0.4202    2.7104 H   0  0  0  0  0  0  0  0  0  0  0  0
    4.0185    1.4481    2.0084 H   0  0  0  0  0  0  0  0  0  0  0  0
    4.0561    0.8863    0.3347 H   0  0  0  0  0  0  0  0  0  0  0  0
    2.6775   -0.7364    0.2612 H   0  0  0  0  0  0  0  0  0  0  0  0
    4.7728   -2.8799    0.0362 H   0  0  0  0  0  0  0  0  0  0  0  0
    4.3637   -1.5411   -1.0444 H   0  0  0  0  0  0  0  0  0  0  0  0
    3.3049   -4.3238   -0.9422 H   0  0  0  0  0  0  0  0  0  0  0  0
    3.3986   -3.2586   -2.3008 H   0  0  0  0  0  0  0  0  0  0  0  0
    1.0016   -3.8070   -1.1423 H   0  0  0  0  0  0  0  0  0  0  0  0
    1.8608   -0.9285   -1.7411 H   0  0  0  0  0  0  0  0  0  0  0  0
    0.2393   -2.9088   -3.3938 H   0  0  0  0  0  0  0  0  0  0  0  0
    2.7836   -1.7146   -3.7768 H   0  0  0  0  0  0  0  0  0  0  0  0
    0.2444   -1.1828   -5.1417 H   0  0  0  0  0  0  0  0  0  0  0  0
    1.1011   -0.0585   -4.1229 H   0  0  0  0  0  0  0  0  0  0  0  0
   -1.6396   -1.2700   -3.5583 H   0  0  0  0  0  0  0  0  0  0  0  0
   -1.6881    0.2997   -5.4461 H   0  0  0  0  0  0  0  0  0  0  0  0
   -0.9589    1.5598   -4.4971 H   0  0  0  0  0  0  0  0  0  0  0  0
   -3.6734    0.2162   -4.0698 H   0  0  0  0  0  0  0  0  0  0  0  0
   -3.3548    1.9688   -5.5962 H   0  0  0  0  0  0  0  0  0  0  0  0
   -4.0211    1.5434   -2.0873 H   0  0  0  0  0  0  0  0  0  0  0  0
   -2.5258    2.4093   -2.2881 H   0  0  0  0  0  0  0  0  0  0  0  0
   -2.8859   -0.5337   -1.5454 H   0  0  0  0  0  0  0  0  0  0  0  0
   -2.2689    0.7579   -0.5263 H   0  0  0  0  0  0  0  0  0  0  0  0
   -0.2592    2.1223   -2.5240 H   0  0  0  0  0  0  0  0  0  0  0  0
    1.1019    1.1034   -2.0907 H   0  0  0  0  0  0  0  0  0  0  0  0
   -0.0063    1.6919   -0.8503 H   0  0  0  0  0  0  0  0  0  0  0  0
   -0.9713   -1.9845   -1.2843 H   0  0  0  0  0  0  0  0  0  0  0  0
   -1.0407   -0.5190    0.6964 H   0  0  0  0  0  0  0  0  0  0  0  0
    0.6165    0.0031    0.4232 H   0  0  0  0  0  0  0  0  0  0  0  0
    0.5197   -1.6863    2.1430 H   0  0  0  0  0  0  0  0  0  0  0  0
   -0.6485   -3.4691    0.3028 H   0  0  0  0  0  0  0  0  0  0  0  0
    1.8808   -3.7719    2.4806 H   0  0  0  0  0  0  0  0  0  0  0  0
    2.9896   -4.3558    1.2517 H   0  0  0  0  0  0  0  0  0  0  0  0
    1.2725   -4.7334    1.1292 H   0  0  0  0  0  0  0  0  0  0  0  0
  1  2  1  0  0  0  0
  1 30  1  0  0  0  0
  1 31  1  0  0  0  0
  1 32  1  0  0  0  0
  2  3  1  0  0  0  0
  2 33  1  1  0  0  0
  3  4  1  0  0  0  0
  3 34  1  0  0  0  0
  3 35  1  0  0  0  0
  4  5  1  0  0  0  0
  4 36  1  0  0  0  0
  4 37  1  0  0  0  0
  5  6  2  0  0  0  0
  5  7  1  0  0  0  0
  8  9  1  0  0  0  0
  8 28  1  0  0  0  0
  8  2  1  0  0  0  0
  8 38  1  6  0  0  0
  9 10  1  0  0  0  0
  9 39  1  0  0  0  0
  9 40  1  0  0  0  0
 10 11  1  0  0  0  0
 10 41  1  0  0  0  0
 10 42  1  0  0  0  0
 11 12  1  0  0  0  0
 11 28  1  0  0  0  0
 11 43  1  1  0  0  0
 12 13  1  0  0  0  0
 12 24  1  0  0  0  0
 12 44  1  6  0  0  0
 13 15  1  0  0  0  0
 13 14  1  0  0  0  0
 13 45  1  6  0  0  0
 14 46  1  0  0  0  0
 15 16  1  0  0  0  0
 15 47  1  0  0  0  0
 15 48  1  0  0  0  0
 16 17  1  0  0  0  0
 16 22  1  0  0  0  0
 16 49  1  6  0  0  0
 17 18  1  0  0  0  0
 17 50  1  0  0  0  0
 17 51  1  0  0  0  0
 18 20  1  0  0  0  0
 18 19  1  0  0  0  0
 18 52  1  6  0  0  0
 19 53  1  0  0  0  0
 20 21  1  0  0  0  0
 20 54  1  0  0  0  0
 20 55  1  0  0  0  0
 21 22  1  0  0  0  0
 21 56  1  0  0  0  0
 21 57  1  0  0  0  0
 22 24  1  0  0  0  0
 22 23  1  6  0  0  0
 23 58  1  0  0  0  0
 23 59  1  0  0  0  0
 23 60  1  0  0  0  0
 24 25  1  0  0  0  0
 24 61  1  1  0  0  0
 25 26  1  0  0  0  0
 25 62  1  0  0  0  0
 25 63  1  0  0  0  0
 26 28  1  0  0  0  0
 26 27  1  0  0  0  0
 26 64  1  1  0  0  0
 27 65  1  0  0  0  0
 28 29  1  1  0  0  0
 29 66  1  0  0  0  0
 29 67  1  0  0  0  0
 29 68  1  0  0  0  0
M  CHG  1   7  -1
M  END
$$$$
