CHEBI:17486
 OpenBabel04242416403D

 44 46  0  0  1  0  0  0  0  0999 V2000
    6.5642   -4.5554    4.5751 C   0  0  0  0  0  0  0  0  0  0  0  0
    5.6880   -4.9141    3.4757 N   0  0  0  0  0  0  0  0  0  0  0  0
    4.3509   -4.3143    3.4885 C   0  0  2  0  0  0  0  0  0  0  0  0
    3.7797   -4.9266    2.2039 C   0  0  0  0  0  0  0  0  0  0  0  0
    5.0004   -5.1279    1.2971 C   0  0  0  0  0  0  0  0  0  0  0  0
    6.1853   -4.6227    2.1292 C   0  0  1  0  0  0  0  0  0  0  0  0
    6.4433   -3.1200    1.9124 C   0  0  0  0  0  0  0  0  0  0  0  0
    5.2327   -2.2329    2.2537 C   0  0  1  0  0  0  0  0  0  0  0  0
    4.3560   -2.1146    1.1090 O   0  0  0  0  0  0  0  0  0  0  0  0
    4.7261   -1.2171    0.1518 C   0  0  0  0  0  0  0  0  0  0  0  0
    5.7481   -0.5397    0.1832 O   0  0  0  0  0  0  0  0  0  0  0  0
    3.6977   -1.1634   -0.9631 C   0  0  2  0  0  0  0  0  0  0  0  0
    4.3908   -0.8136   -2.2904 C   0  0  0  0  0  0  0  0  0  0  0  0
    4.9808    0.4849   -2.3032 O   0  0  0  0  0  0  0  0  0  0  0  0
    2.5189   -0.2543   -0.6580 C   0  0  0  0  0  0  0  0  0  0  0  0
    1.2294   -0.6321   -1.0672 C   0  0  0  0  0  0  0  0  0  0  0  0
    0.1315    0.1949   -0.8211 C   0  0  0  0  0  0  0  0  0  0  0  0
    0.3064    1.4103   -0.1645 C   0  0  0  0  0  0  0  0  0  0  0  0
    1.5798    1.8033    0.2394 C   0  0  0  0  0  0  0  0  0  0  0  0
    2.6802    0.9809   -0.0110 C   0  0  0  0  0  0  0  0  0  0  0  0
    4.3992   -2.7761    3.4264 C   0  0  0  0  0  0  0  0  0  0  0  0
    6.1163   -4.8607    5.5270 H   0  0  0  0  0  0  0  0  0  0  0  0
    6.7907   -3.4874    4.6405 H   0  0  0  0  0  0  0  0  0  0  0  0
    7.5147   -5.0933    4.4882 H   0  0  0  0  0  0  0  0  0  0  0  0
    3.7681   -4.6369    4.3583 H   0  0  0  0  0  0  0  0  0  0  0  0
    3.0123   -4.3036    1.7343 H   0  0  0  0  0  0  0  0  0  0  0  0
    3.3244   -5.9024    2.4154 H   0  0  0  0  0  0  0  0  0  0  0  0
    4.8951   -4.6088    0.3394 H   0  0  0  0  0  0  0  0  0  0  0  0
    5.1141   -6.1973    1.0791 H   0  0  0  0  0  0  0  0  0  0  0  0
    7.0892   -5.1961    1.8956 H   0  0  0  0  0  0  0  0  0  0  0  0
    6.7527   -2.9652    0.8721 H   0  0  0  0  0  0  0  0  0  0  0  0
    7.2914   -2.8123    2.5361 H   0  0  0  0  0  0  0  0  0  0  0  0
    5.5738   -1.2251    2.5233 H   0  0  0  0  0  0  0  0  0  0  0  0
    3.3228   -2.1914   -1.0747 H   0  0  0  0  0  0  0  0  0  0  0  0
    5.1857   -1.5362   -2.5083 H   0  0  0  0  0  0  0  0  0  0  0  0
    3.6742   -0.8537   -3.1179 H   0  0  0  0  0  0  0  0  0  0  0  0
    5.6149    0.5214   -1.5585 H   0  0  0  0  0  0  0  0  0  0  0  0
    1.0683   -1.5727   -1.5898 H   0  0  0  0  0  0  0  0  0  0  0  0
   -0.8602   -0.1067   -1.1481 H   0  0  0  0  0  0  0  0  0  0  0  0
   -0.5472    2.0561    0.0235 H   0  0  0  0  0  0  0  0  0  0  0  0
    1.7203    2.7576    0.7407 H   0  0  0  0  0  0  0  0  0  0  0  0
    3.6657    1.3281    0.2937 H   0  0  0  0  0  0  0  0  0  0  0  0
    3.3745   -2.3883    3.3660 H   0  0  0  0  0  0  0  0  0  0  0  0
    4.8205   -2.3977    4.3656 H   0  0  0  0  0  0  0  0  0  0  0  0
  1  2  1  0  0  0  0
  1 22  1  0  0  0  0
  1 23  1  0  0  0  0
  1 24  1  0  0  0  0
  2  3  1  0  0  0  0
  2  6  1  0  0  0  0
  3  4  1  0  0  0  0
  3 21  1  0  0  0  0
  3 25  1  1  0  0  0
  4  5  1  0  0  0  0
  4 26  1  0  0  0  0
  4 27  1  0  0  0  0
  5  6  1  0  0  0  0
  5 28  1  0  0  0  0
  5 29  1  0  0  0  0
  6  7  1  0  0  0  0
  6 30  1  6  0  0  0
  7  8  1  0  0  0  0
  7 31  1  0  0  0  0
  7 32  1  0  0  0  0
  8  9  1  0  0  0  0
  8 21  1  0  0  0  0
  8 33  1  1  0  0  0
  9 10  1  0  0  0  0
 10 11  2  0  0  0  0
 12 15  1  0  0  0  0
 12 13  1  0  0  0  0
 12 10  1  0  0  0  0
 12 34  1  6  0  0  0
 13 14  1  0  0  0  0
 13 35  1  0  0  0  0
 13 36  1  0  0  0  0
 14 37  1  0  0  0  0
 15 16  1  0  0  0  0
 15 20  2  0  0  0  0
 16 17  2  0  0  0  0
 16 38  1  0  0  0  0
 17 18  1  0  0  0  0
 17 39  1  0  0  0  0
 18 19  2  0  0  0  0
 18 40  1  0  0  0  0
 19 20  1  0  0  0  0
 19 41  1  0  0  0  0
 20 42  1  0  0  0  0
 21 43  1  0  0  0  0
 21 44  1  0  0  0  0
M  END
$$$$
