CHEBI:3252
 OpenBabel04242410473D

102108  0  0  1  0  0  0  0  0999 V2000
   -0.8388    5.8328   -4.9551 C   0  0  0  0  0  0  0  0  0  0  0  0
   -0.3522    4.7359   -4.3570 C   0  0  0  0  0  0  0  0  0  0  0  0
   -0.2989    4.6646   -2.9710 O   0  0  0  0  0  0  0  0  0  0  0  0
    0.2816    3.5567   -2.4001 C   0  0  0  0  0  0  0  0  0  0  0  0
    0.2837    3.4970   -1.0030 C   0  0  0  0  0  0  0  0  0  0  0  0
    0.8797    2.4203   -0.3471 C   0  0  0  0  0  0  0  0  0  0  0  0
    0.8100    2.4258    1.0185 O   0  0  0  0  0  0  0  0  0  0  0  0
    1.8670    1.7444    1.6930 C   0  0  0  0  0  0  0  0  0  0  0  0
    1.4483    1.3946   -1.0961 C   0  0  0  0  0  0  0  0  0  0  0  0
    1.4276    1.4317   -2.5000 C   0  0  0  0  0  0  0  0  0  0  0  0
    2.0094    0.2863   -3.2459 C   0  0  0  0  0  0  0  0  0  0  0  0
    2.4834    0.3550   -4.3658 O   0  0  0  0  0  0  0  0  0  0  0  0
    1.8700   -0.8321   -2.4957 O   0  0  0  0  0  0  0  0  0  0  0  0
    2.3678   -2.0873   -3.0336 C   0  0  1  0  0  0  0  0  0  0  0  0
    1.3367   -2.6260   -4.0942 C   0  0  0  0  0  0  0  0  0  0  0  0
    0.2417   -1.6962   -4.4014 O   0  0  0  0  0  0  0  0  0  0  0  0
   -0.2915   -1.7228   -5.6690 C   0  0  0  0  0  0  0  0  0  0  0  0
    0.1427   -2.4021   -6.5896 O   0  0  0  0  0  0  0  0  0  0  0  0
   -1.5653   -0.8828   -5.7743 C   0  0  0  0  0  0  0  0  0  0  0  0
   -2.8177   -1.7682   -6.0408 C   0  0  2  0  0  0  0  0  0  0  0  0
   -4.0529   -0.9849   -5.8661 N   0  0  0  0  0  0  0  0  0  0  0  0
   -2.8681   -2.9771   -5.1256 C   0  0  0  0  0  0  0  0  0  0  0  0
   -3.1488   -4.2757   -5.5647 C   0  0  0  0  0  0  0  0  0  0  0  0
   -3.0528   -5.3582   -4.6654 C   0  0  0  0  0  0  0  0  0  0  0  0
   -3.3022   -6.6258   -5.1233 O   0  0  0  0  0  0  0  0  0  0  0  0
   -2.6670   -5.1754   -3.3209 C   0  0  0  0  0  0  0  0  0  0  0  0
   -2.4432   -3.8547   -2.8941 C   0  0  0  0  0  0  0  0  0  0  0  0
   -1.9533   -3.3273   -1.3315 Cl  0  0  0  0  0  0  0  0  0  0  0  0
   -2.5730   -2.7902   -3.7784 C   0  0  0  0  0  0  0  0  0  0  0  0
   -2.5611   -6.3025   -2.5070 O   0  0  0  0  0  0  0  0  0  0  0  0
   -1.2666   -6.3985   -1.8667 C   0  0  2  0  0  0  0  0  0  0  0  0
   -0.5360   -7.6974   -2.1660 C   0  0  0  0  0  0  0  0  0  0  0  0
    0.0907   -8.8115   -2.4226 C   0  0  0  0  0  0  0  0  0  0  0  0
    1.5068   -5.6726   -2.1009 C   0  0  0  0  0  0  0  0  0  0  0  0
    2.7428   -2.8724   -1.7274 C   0  0  0  0  0  0  0  0  0  0  0  0
    1.8368   -3.9477   -1.1500 C   0  0  0  0  0  0  0  0  0  0  0  0
    1.0596   -4.8701   -0.6548 C   0  0  0  0  0  0  0  0  0  0  0  0
    0.1536   -5.9454   -0.0774 C   0  0  0  0  0  0  0  0  0  0  0  0
    0.7495   -6.9558    0.6116 C   0  0  0  0  0  0  0  0  0  0  0  0
   -0.1732   -8.0427    0.8393 C   0  0  0  0  0  0  0  0  0  0  0  0
   -1.3557   -7.7181    0.3007 C   0  0  0  0  0  0  0  0  0  0  0  0
   -1.2860   -6.3265   -0.3063 C   0  0  2  0  0  0  0  0  0  0  0  0
   -2.2957   -5.5542    0.3569 O   0  0  0  0  0  0  0  0  0  0  0  0
   -2.1733   -5.3584    1.7877 C   0  0  2  0  0  0  0  0  0  0  0  0
   -2.2125   -6.5406    2.5894 O   0  0  0  0  0  0  0  0  0  0  0  0
   -3.4778   -7.1297    2.9851 C   0  0  0  0  0  0  0  0  0  0  0  0
   -3.1812   -8.6441    2.8362 C   0  0  0  0  0  0  0  0  0  0  0  0
   -3.6823   -6.8964    4.4944 C   0  0  0  0  0  0  0  0  0  0  0  0
   -4.7103   -6.6133    2.1287 C   0  0  1  0  0  0  0  0  0  0  0  0
   -6.0808   -7.1735    2.4472 N   0  0  0  0  0  0  0  0  0  0  0  0
   -7.1539   -6.6106    1.6151 C   0  0  0  0  0  0  0  0  0  0  0  0
   -6.1890   -8.6289    2.3047 C   0  0  0  0  0  0  0  0  0  0  0  0
   -4.6471   -5.0234    2.0309 C   0  0  1  0  0  0  0  0  0  0  0  0
   -5.6093   -4.3438    2.8511 O   0  0  0  0  0  0  0  0  0  0  0  0
   -3.2558   -4.3942    2.2814 C   0  0  1  0  0  0  0  0  0  0  0  0
   -3.0656   -4.0573    3.6699 O   0  0  0  0  0  0  0  0  0  0  0  0
    0.8464    2.5257   -3.1572 C   0  0  0  0  0  0  0  0  0  0  0  0
    0.7685    2.5982   -4.5525 N   0  0  0  0  0  0  0  0  0  0  0  0
    0.1482    3.6169   -5.2185 C   0  0  0  0  0  0  0  0  0  0  0  0
    0.0230    3.5995   -6.4389 O   0  0  0  0  0  0  0  0  0  0  0  0
   -1.1910    6.6798   -4.3775 H   0  0  0  0  0  0  0  0  0  0  0  0
   -0.8842    5.9147   -6.0379 H   0  0  0  0  0  0  0  0  0  0  0  0
   -0.1756    4.2941   -0.4228 H   0  0  0  0  0  0  0  0  0  0  0  0
    2.8298    2.2114    1.4597 H   0  0  0  0  0  0  0  0  0  0  0  0
    1.8880    0.6739    1.4652 H   0  0  0  0  0  0  0  0  0  0  0  0
    1.6939    1.8343    2.7689 H   0  0  0  0  0  0  0  0  0  0  0  0
    1.8901    0.5352   -0.6036 H   0  0  0  0  0  0  0  0  0  0  0  0
    3.3186   -1.8945   -3.5450 H   0  0  0  0  0  0  0  0  0  0  0  0
    0.8635   -3.5492   -3.7561 H   0  0  0  0  0  0  0  0  0  0  0  0
    1.8881   -2.8599   -5.0119 H   0  0  0  0  0  0  0  0  0  0  0  0
   -1.4408   -0.1459   -6.5776 H   0  0  0  0  0  0  0  0  0  0  0  0
   -1.6826   -0.2906   -4.8567 H   0  0  0  0  0  0  0  0  0  0  0  0
   -2.7869   -2.1038   -7.0847 H   0  0  0  0  0  0  0  0  0  0  0  0
   -4.0862   -0.5775   -4.9318 H   0  0  0  0  0  0  0  0  0  0  0  0
   -4.8596   -1.6104   -5.9135 H   0  0  0  0  0  0  0  0  0  0  0  0
   -3.4114   -4.4422   -6.6085 H   0  0  0  0  0  0  0  0  0  0  0  0
   -3.6736   -6.5807   -6.0204 H   0  0  0  0  0  0  0  0  0  0  0  0
   -2.3768   -1.7854   -3.4082 H   0  0  0  0  0  0  0  0  0  0  0  0
   -0.6855   -5.6032   -2.3198 H   0  0  0  0  0  0  0  0  0  0  0  0
    1.6184   -5.7836   -3.2065 H   0  0  0  0  0  0  0  0  0  0  0  0
    1.8072   -7.0508    0.8140 H   0  0  0  0  0  0  0  0  0  0  0  0
    0.0821   -9.0043    1.2571 H   0  0  0  0  0  0  0  0  0  0  0  0
   -2.2267   -8.3471    0.2179 H   0  0  0  0  0  0  0  0  0  0  0  0
   -1.2000   -4.8948    1.9877 H   0  0  0  0  0  0  0  0  0  0  0  0
   -2.1117   -8.8567    2.9528 H   0  0  0  0  0  0  0  0  0  0  0  0
   -3.4729   -9.0162    1.8501 H   0  0  0  0  0  0  0  0  0  0  0  0
   -3.6793   -9.2615    3.5888 H   0  0  0  0  0  0  0  0  0  0  0  0
   -2.7328   -6.9934    5.0340 H   0  0  0  0  0  0  0  0  0  0  0  0
   -4.3919   -7.6153    4.9204 H   0  0  0  0  0  0  0  0  0  0  0  0
   -4.0816   -5.9075    4.7219 H   0  0  0  0  0  0  0  0  0  0  0  0
   -4.4863   -6.9449    1.1031 H   0  0  0  0  0  0  0  0  0  0  0  0
   -7.3379   -5.5542    1.8017 H   0  0  0  0  0  0  0  0  0  0  0  0
   -8.1122   -7.0934    1.8508 H   0  0  0  0  0  0  0  0  0  0  0  0
   -6.9614   -6.7544    0.5466 H   0  0  0  0  0  0  0  0  0  0  0  0
   -5.5616   -9.1720    3.0036 H   0  0  0  0  0  0  0  0  0  0  0  0
   -5.9753   -8.9585    1.2814 H   0  0  0  0  0  0  0  0  0  0  0  0
   -7.2009   -8.9669    2.5626 H   0  0  0  0  0  0  0  0  0  0  0  0
   -4.9087   -4.7862    0.9892 H   0  0  0  0  0  0  0  0  0  0  0  0
   -6.2488   -3.9184    2.2588 H   0  0  0  0  0  0  0  0  0  0  0  0
   -3.2045   -3.4423    1.7423 H   0  0  0  0  0  0  0  0  0  0  0  0
   -2.2185   -3.5963    3.7700 H   0  0  0  0  0  0  0  0  0  0  0  0
    1.1816    1.8682   -5.1278 H   0  0  0  0  0  0  0  0  0  0  0  0
  1  2  2  0  0  0  0
  1 61  1  0  0  0  0
  1 62  1  0  0  0  0
  2  3  1  0  0  0  0
  2 59  1  0  0  0  0
  3  4  1  0  0  0  0
  4  5  1  0  0  0  0
  4 57  2  0  0  0  0
  5  6  2  0  0  0  0
  5 63  1  0  0  0  0
  6  7  1  0  0  0  0
  6  9  1  0  0  0  0
  7  8  1  0  0  0  0
  8 64  1  0  0  0  0
  8 65  1  0  0  0  0
  8 66  1  0  0  0  0
  9 10  2  0  0  0  0
  9 67  1  0  0  0  0
 10 11  1  0  0  0  0
 10 57  1  0  0  0  0
 11 12  2  0  0  0  0
 11 13  1  0  0  0  0
 14 15  1  0  0  0  0
 14 35  1  0  0  0  0
 14 13  1  0  0  0  0
 14 68  1  1  0  0  0
 15 16  1  0  0  0  0
 15 69  1  0  0  0  0
 15 70  1  0  0  0  0
 16 17  1  0  0  0  0
 17 19  1  0  0  0  0
 17 18  2  0  0  0  0
 19 20  1  0  0  0  0
 19 71  1  0  0  0  0
 19 72  1  0  0  0  0
 20 22  1  0  0  0  0
 20 21  1  0  0  0  0
 20 73  1  6  0  0  0
 21 74  1  0  0  0  0
 21 75  1  0  0  0  0
 22 23  1  0  0  0  0
 22 29  2  0  0  0  0
 23 24  2  0  0  0  0
 23 76  1  0  0  0  0
 24 26  1  0  0  0  0
 24 25  1  0  0  0  0
 25 77  1  0  0  0  0
 26 27  2  0  0  0  0
 26 30  1  0  0  0  0
 27 29  1  0  0  0  0
 27 28  1  0  0  0  0
 29 78  1  0  0  0  0
 30 31  1  0  0  0  0
 31 32  1  0  0  0  0
 31 42  1  0  0  0  0
 31 79  1  6  0  0  0
 32 33  3  0  0  0  0
 33 34  1  0  0  0  0
 34 35  2  0  0  0  0
 34 80  1  0  0  0  0
 35 36  1  0  0  0  0
 36 37  3  0  0  0  0
 37 38  1  0  0  0  0
 38 39  2  0  0  0  0
 38 42  1  0  0  0  0
 39 40  1  0  0  0  0
 39 81  1  0  0  0  0
 40 41  2  0  0  0  0
 40 82  1  0  0  0  0
 41 42  1  0  0  0  0
 41 83  1  0  0  0  0
 42 43  1  1  0  0  0
 43 44  1  0  0  0  0
 44 45  1  0  0  0  0
 44 55  1  0  0  0  0
 44 84  1  1  0  0  0
 45 46  1  0  0  0  0
 46 47  1  0  0  0  0
 46 48  1  0  0  0  0
 46 49  1  0  0  0  0
 47 85  1  0  0  0  0
 47 86  1  0  0  0  0
 47 87  1  0  0  0  0
 48 88  1  0  0  0  0
 48 89  1  0  0  0  0
 48 90  1  0  0  0  0
 49 50  1  0  0  0  0
 49 53  1  0  0  0  0
 49 91  1  6  0  0  0
 50 51  1  0  0  0  0
 50 52  1  0  0  0  0
 51 92  1  0  0  0  0
 51 93  1  0  0  0  0
 51 94  1  0  0  0  0
 52 95  1  0  0  0  0
 52 96  1  0  0  0  0
 52 97  1  0  0  0  0
 53 54  1  0  0  0  0
 53 55  1  0  0  0  0
 53 98  1  6  0  0  0
 54 99  1  0  0  0  0
 55 56  1  0  0  0  0
 55100  1  6  0  0  0
 56101  1  0  0  0  0
 57 58  1  0  0  0  0
 58 59  1  0  0  0  0
 58102  1  0  0  0  0
 59 60  2  0  0  0  0
M  END
$$$$
