CHEBI:17342
 OpenBabel04242416213D

 21 21  0  0  1  0  0  0  0  0999 V2000
    2.8556   -0.1297    1.4959 N   0  0  0  0  0  0  0  0  0  0  0  0
    2.4124   -0.1006    0.0871 C   0  0  1  0  0  0  0  0  0  0  0  0
    2.8594    1.1620   -0.6761 C   0  0  0  0  0  0  0  0  0  0  0  0
    4.3604    1.4902   -0.6540 C   0  0  0  0  0  0  0  0  0  0  0  0
    5.3381    0.6016   -1.4441 C   0  0  0  0  0  0  0  0  0  0  0  0
    5.0069   -0.8727   -1.6885 C   0  0  0  0  0  0  0  0  0  0  0  0
    4.2907   -1.4786   -0.5953 N   0  0  0  0  0  0  0  0  0  0  0  0
    2.9167   -1.3204   -0.6817 C   0  0  0  0  0  0  0  0  0  0  0  0
    2.2279   -1.9232   -1.5000 O   0  0  0  0  0  0  0  0  0  0  0  0
    2.2997    0.5483    2.0187 H   0  0  0  0  0  0  0  0  0  0  0  0
    3.8158    0.1887    1.5873 H   0  0  0  0  0  0  0  0  0  0  0  0
    1.3174   -0.1601    0.0859 H   0  0  0  0  0  0  0  0  0  0  0  0
    2.3261    2.0191   -0.2451 H   0  0  0  0  0  0  0  0  0  0  0  0
    2.5331    1.0921   -1.7224 H   0  0  0  0  0  0  0  0  0  0  0  0
    4.7081    1.5535    0.3832 H   0  0  0  0  0  0  0  0  0  0  0  0
    4.4783    2.5123   -1.0395 H   0  0  0  0  0  0  0  0  0  0  0  0
    6.3020    0.6477   -0.9185 H   0  0  0  0  0  0  0  0  0  0  0  0
    5.5279    1.0666   -2.4203 H   0  0  0  0  0  0  0  0  0  0  0  0
    5.9303   -1.4413   -1.8377 H   0  0  0  0  0  0  0  0  0  0  0  0
    4.4127   -0.9617   -2.6067 H   0  0  0  0  0  0  0  0  0  0  0  0
    4.6589   -1.2619    0.3210 H   0  0  0  0  0  0  0  0  0  0  0  0
  1 10  1  0  0  0  0
  1 11  1  0  0  0  0
  2  3  1  0  0  0  0
  2  8  1  0  0  0  0
  2  1  1  0  0  0  0
  2 12  1  6  0  0  0
  3  4  1  0  0  0  0
  3 13  1  0  0  0  0
  3 14  1  0  0  0  0
  4  5  1  0  0  0  0
  4 15  1  0  0  0  0
  4 16  1  0  0  0  0
  5  6  1  0  0  0  0
  5 17  1  0  0  0  0
  5 18  1  0  0  0  0
  6  7  1  0  0  0  0
  6 19  1  0  0  0  0
  6 20  1  0  0  0  0
  7  8  1  0  0  0  0
  7 21  1  0  0  0  0
  8  9  2  0  0  0  0
M  END
$$$$
