CHEBI:17271
 OpenBabel04242416083D

 12 11  0  0  0  0  0  0  0  0999 V2000
    1.8913   -3.0456    0.0791 O   0  0  0  0  0  0  0  0  0  0  0  0
    2.5463   -4.0790    0.4602 C   0  0  0  0  0  0  0  0  0  0  0  0
    2.0167   -5.0475    1.1160 O   0  5  0  0  0  0  0  0  0  0  0  0
    4.0591   -4.1482    0.1061 C   0  0  0  0  0  0  0  0  0  0  0  0
    4.6391   -5.1518    0.5154 O   0  0  0  0  0  0  0  0  0  0  0  0
    4.6145   -2.9840   -0.6731 C   0  0  0  0  0  0  0  0  0  0  0  0
    6.3782   -2.9118   -1.2132 P   0  0  0  0  0  0  0  0  0  0  0  0
    6.4409   -1.5726   -1.9584 O   0  0  0  0  0  0  0  0  0  0  0  0
    7.2043   -2.9126    0.0702 O   0  5  0  0  0  0  0  0  0  0  0  0
    6.5770   -4.1115   -2.1356 O   0  5  0  0  0  0  0  0  0  0  0  0
    4.4512   -2.0815   -0.0728 H   0  0  0  0  0  0  0  0  0  0  0  0
    4.0232   -2.8935   -1.5916 H   0  0  0  0  0  0  0  0  0  0  0  0
  1  2  2  0  0  0  0
  2  3  1  0  0  0  0
  2  4  1  0  0  0  0
  4  5  2  0  0  0  0
  4  6  1  0  0  0  0
  6  7  1  0  0  0  0
  6 11  1  0  0  0  0
  6 12  1  0  0  0  0
  7  8  2  0  0  0  0
  7  9  1  0  0  0  0
  7 10  1  0  0  0  0
M  CHG  3   3  -1   9  -1  10  -1
M  END
$$$$
