CHEBI:16067
 OpenBabel04242413433D

 44 44  0  0  1  0  0  0  0  0999 V2000
    3.8243    2.6705   -5.7680 O   0  0  0  0  0  0  0  0  0  0  0  0
    3.6255    3.4431   -4.5159 P   0  0  0  0  0  0  0  0  0  0  0  0
    3.1889    2.5322   -3.2717 O   0  0  0  0  0  0  0  0  0  0  0  0
    4.9715    4.0948   -3.9687 O   0  0  0  0  0  0  0  0  0  0  0  0
    2.5705    4.6430   -4.5465 O   0  0  0  0  0  0  0  0  0  0  0  0
    2.6441    5.7348   -3.6343 C   0  0  2  0  0  0  0  0  0  0  0  0
    2.0578    5.4101   -2.2411 C   0  0  1  0  0  0  0  0  0  0  0  0
    2.3601    6.4861   -1.3642 O   0  0  0  0  0  0  0  0  0  0  0  0
    3.6032    6.4003   -0.3739 P   0  0  0  0  0  0  0  0  0  0  0  0
    3.4299    5.6488    0.8938 O   0  0  0  0  0  0  0  0  0  0  0  0
    3.9206    7.9537   -0.1020 O   0  0  0  0  0  0  0  0  0  0  0  0
    4.8615    6.0041   -1.2664 O   0  0  0  0  0  0  0  0  0  0  0  0
    0.5287    5.2066   -2.2951 C   0  0  2  0  0  0  0  0  0  0  0  0
    0.2327    4.0424   -3.0567 O   0  0  0  0  0  0  0  0  0  0  0  0
    0.0741    2.6497   -2.2884 P   0  0  0  0  0  0  0  0  0  0  0  0
    0.6340    2.5426   -0.9165 O   0  0  0  0  0  0  0  0  0  0  0  0
   -1.4778    2.3158   -2.4292 O   0  0  0  0  0  0  0  0  0  0  0  0
    0.7092    1.6272   -3.3342 O   0  0  0  0  0  0  0  0  0  0  0  0
   -0.2026    6.3910   -2.9447 C   0  0  1  0  0  0  0  0  0  0  0  0
   -0.2274    7.5222   -2.0663 O   0  0  0  0  0  0  0  0  0  0  0  0
    0.4086    6.7772   -4.3028 C   0  0  1  0  0  0  0  0  0  0  0  0
   -0.1918    8.0119   -4.7389 O   0  0  0  0  0  0  0  0  0  0  0  0
    1.9424    6.9409   -4.2907 C   0  0  1  0  0  0  0  0  0  0  0  0
    2.2526    8.1910   -3.6703 O   0  0  0  0  0  0  0  0  0  0  0  0
    3.7020    8.8466   -3.8016 P   0  0  0  0  0  0  0  0  0  0  0  0
    3.7506   10.3325   -3.7895 O   0  0  0  0  0  0  0  0  0  0  0  0
    4.5866    8.1950   -2.6389 O   0  0  0  0  0  0  0  0  0  0  0  0
    4.3642    8.2275   -5.1145 O   0  0  0  0  0  0  0  0  0  0  0  0
    3.9372    1.9481   -3.0248 H   0  0  0  0  0  0  0  0  0  0  0  0
    5.5510    4.3821   -4.7006 H   0  0  0  0  0  0  0  0  0  0  0  0
    3.6924    6.0074   -3.5182 H   0  0  0  0  0  0  0  0  0  0  0  0
    2.5146    4.4924   -1.8573 H   0  0  0  0  0  0  0  0  0  0  0  0
    3.4893    8.2017    0.7422 H   0  0  0  0  0  0  0  0  0  0  0  0
    5.0759    6.7152   -1.9100 H   0  0  0  0  0  0  0  0  0  0  0  0
    0.1453    5.0982   -1.2724 H   0  0  0  0  0  0  0  0  0  0  0  0
   -1.6665    1.4127   -2.1190 H   0  0  0  0  0  0  0  0  0  0  0  0
    1.6823    1.7598   -3.3455 H   0  0  0  0  0  0  0  0  0  0  0  0
   -1.2524    6.1160   -3.1102 H   0  0  0  0  0  0  0  0  0  0  0  0
   -0.8553    8.1519   -2.4684 H   0  0  0  0  0  0  0  0  0  0  0  0
    0.1426    6.0071   -5.0363 H   0  0  0  0  0  0  0  0  0  0  0  0
    0.3098    8.7154   -4.2789 H   0  0  0  0  0  0  0  0  0  0  0  0
    2.2492    7.0190   -5.3409 H   0  0  0  0  0  0  0  0  0  0  0  0
    4.4407    8.7009   -1.7999 H   0  0  0  0  0  0  0  0  0  0  0  0
    4.7737    8.9387   -5.6451 H   0  0  0  0  0  0  0  0  0  0  0  0
  1  2  2  0  0  0  0
  2  3  1  0  0  0  0
  2  4  1  0  0  0  0
  2  5  1  0  0  0  0
  3 29  1  0  0  0  0
  4 30  1  0  0  0  0
  5  6  1  0  0  0  0
  6  7  1  0  0  0  0
  6 23  1  0  0  0  0
  6 31  1  1  0  0  0
  7 13  1  0  0  0  0
  7  8  1  0  0  0  0
  7 32  1  1  0  0  0
  8  9  1  0  0  0  0
  9 10  2  0  0  0  0
  9 11  1  0  0  0  0
  9 12  1  0  0  0  0
 11 33  1  0  0  0  0
 12 34  1  0  0  0  0
 13 14  1  0  0  0  0
 13 19  1  0  0  0  0
 13 35  1  1  0  0  0
 14 15  1  0  0  0  0
 15 16  2  0  0  0  0
 15 17  1  0  0  0  0
 15 18  1  0  0  0  0
 17 36  1  0  0  0  0
 18 37  1  0  0  0  0
 19 20  1  0  0  0  0
 19 21  1  0  0  0  0
 19 38  1  6  0  0  0
 20 39  1  0  0  0  0
 21 22  1  0  0  0  0
 21 23  1  0  0  0  0
 21 40  1  6  0  0  0
 22 41  1  0  0  0  0
 23 24  1  0  0  0  0
 23 42  1  6  0  0  0
 24 25  1  0  0  0  0
 25 26  2  0  0  0  0
 25 27  1  0  0  0  0
 25 28  1  0  0  0  0
 27 43  1  0  0  0  0
 28 44  1  0  0  0  0
M  END
$$$$
