CHEBI:17954
 OpenBabel04242423193D

 40 40  0  0  1  0  0  0  0  0999 V2000
   19.0081   -9.3930    4.0951 O   0  0  0  0  0  0  0  0  0  0  0  0
   17.5587   -9.0429    4.0623 P   0  0  0  0  0  0  0  0  0  0  0  0
   16.5765  -10.1746    4.6024 O   0  0  0  0  0  0  0  0  0  0  0  0
   17.2775   -7.8450    5.0832 O   0  0  0  0  0  0  0  0  0  0  0  0
   17.0062   -8.5130    2.6607 O   0  0  0  0  0  0  0  0  0  0  0  0
   15.6604   -8.7204    2.2634 C   0  0  0  0  0  0  0  0  0  0  0  0
   14.6498   -7.9894    3.1536 C   0  0  2  0  0  0  0  0  0  0  0  0
   14.5460   -8.6634    4.4261 O   0  0  0  0  0  0  0  0  0  0  0  0
   13.2618   -7.9938    2.5068 C   0  0  0  0  0  0  0  0  0  0  0  0
   12.3368   -7.3429    3.3898 O   0  0  0  0  0  0  0  0  0  0  0  0
   11.0069   -7.3710    2.8485 C   0  0  1  0  0  0  0  0  0  0  0  0
   10.4674   -8.6971    2.9358 O   0  0  0  0  0  0  0  0  0  0  0  0
   10.3222   -9.1442    4.3008 C   0  0  2  0  0  0  0  0  0  0  0  0
    9.8318  -10.5945    4.2497 C   0  0  0  0  0  0  0  0  0  0  0  0
    8.5822  -10.6671    3.5601 O   0  0  0  0  0  0  0  0  0  0  0  0
    9.3561   -8.2261    5.0750 C   0  0  2  0  0  0  0  0  0  0  0  0
    8.0273   -8.2281    4.5190 O   0  0  0  0  0  0  0  0  0  0  0  0
    9.8580   -6.7804    5.0141 C   0  0  2  0  0  0  0  0  0  0  0  0
    8.8814   -5.8983    5.5956 O   0  0  0  0  0  0  0  0  0  0  0  0
   10.0892   -6.3574    3.5608 C   0  0  1  0  0  0  0  0  0  0  0  0
   10.6206   -5.0261    3.5197 O   0  0  0  0  0  0  0  0  0  0  0  0
   15.6972   -9.7669    4.7819 H   0  0  0  0  0  0  0  0  0  0  0  0
   18.1355   -7.5228    5.4191 H   0  0  0  0  0  0  0  0  0  0  0  0
   15.4655   -9.7983    2.2452 H   0  0  0  0  0  0  0  0  0  0  0  0
   15.5833   -8.3516    1.2352 H   0  0  0  0  0  0  0  0  0  0  0  0
   14.9840   -6.9674    3.3644 H   0  0  0  0  0  0  0  0  0  0  0  0
   13.9285   -8.0990    4.9386 H   0  0  0  0  0  0  0  0  0  0  0  0
   12.9330   -9.0278    2.3495 H   0  0  0  0  0  0  0  0  0  0  0  0
   13.2875   -7.4670    1.5465 H   0  0  0  0  0  0  0  0  0  0  0  0
   11.0549   -7.0907    1.7891 H   0  0  0  0  0  0  0  0  0  0  0  0
   11.3061   -9.1395    4.7861 H   0  0  0  0  0  0  0  0  0  0  0  0
   10.5444  -11.2274    3.7107 H   0  0  0  0  0  0  0  0  0  0  0  0
    9.6934  -10.9995    5.2565 H   0  0  0  0  0  0  0  0  0  0  0  0
    8.7735  -10.3609    2.6498 H   0  0  0  0  0  0  0  0  0  0  0  0
    9.2578   -8.5489    6.1171 H   0  0  0  0  0  0  0  0  0  0  0  0
    7.8089   -9.1614    4.3003 H   0  0  0  0  0  0  0  0  0  0  0  0
   10.7786   -6.6605    5.5961 H   0  0  0  0  0  0  0  0  0  0  0  0
    8.0139   -6.2750    5.3332 H   0  0  0  0  0  0  0  0  0  0  0  0
    9.1246   -6.3206    3.0391 H   0  0  0  0  0  0  0  0  0  0  0  0
   10.1112   -4.5259    4.1888 H   0  0  0  0  0  0  0  0  0  0  0  0
  1  2  2  0  0  0  0
  2  3  1  0  0  0  0
  2  4  1  0  0  0  0
  2  5  1  0  0  0  0
  3 22  1  0  0  0  0
  4 23  1  0  0  0  0
  5  6  1  0  0  0  0
  6 24  1  0  0  0  0
  6 25  1  0  0  0  0
  7  9  1  0  0  0  0
  7  8  1  0  0  0  0
  7  6  1  0  0  0  0
  7 26  1  1  0  0  0
  8 27  1  0  0  0  0
  9 10  1  0  0  0  0
  9 28  1  0  0  0  0
  9 29  1  0  0  0  0
 10 11  1  0  0  0  0
 11 12  1  0  0  0  0
 11 20  1  0  0  0  0
 11 30  1  6  0  0  0
 12 13  1  0  0  0  0
 13 16  1  0  0  0  0
 13 14  1  0  0  0  0
 13 31  1  1  0  0  0
 14 15  1  0  0  0  0
 14 32  1  0  0  0  0
 14 33  1  0  0  0  0
 15 34  1  0  0  0  0
 16 17  1  0  0  0  0
 16 18  1  0  0  0  0
 16 35  1  1  0  0  0
 17 36  1  0  0  0  0
 18 19  1  0  0  0  0
 18 20  1  0  0  0  0
 18 37  1  1  0  0  0
 19 38  1  0  0  0  0
 20 21  1  0  0  0  0
 20 39  1  6  0  0  0
 21 40  1  0  0  0  0
M  END
$$$$
