CHEBI:15883
 OpenBabel04242413253D

 83 88  0  0  1  0  0  0  0  0999 V2000
   21.0412    0.4443   -2.8365 N   0  0  0  0  0  0  0  0  0  0  0  0
   19.9135   -0.1990   -3.2262 C   0  0  0  0  0  0  0  0  0  0  0  0
   19.9846   -1.4250   -3.6763 N   0  0  0  0  0  0  0  0  0  0  0  0
   18.7789   -1.9250   -4.0464 C   0  0  0  0  0  0  0  0  0  0  0  0
   17.5447   -1.3201   -3.9841 C   0  0  0  0  0  0  0  0  0  0  0  0
   16.5569   -2.1493   -4.4477 N   0  0  0  0  0  0  0  0  0  0  0  0
   17.1903   -3.2525   -4.7978 C   0  0  0  0  0  0  0  0  0  0  0  0
   18.5385   -3.1698   -4.5611 N   0  0  0  0  0  0  0  0  0  0  0  0
   19.5471   -4.1860   -4.8014 C   0  0  2  0  0  0  0  0  0  0  0  0
   18.9341   -5.3589   -5.3696 O   0  0  0  0  0  0  0  0  0  0  0  0
   19.6108   -6.5236   -4.8393 C   0  0  2  0  0  0  0  0  0  0  0  0
   18.5776   -7.4205   -4.1578 C   0  0  0  0  0  0  0  0  0  0  0  0
   18.1293   -6.8596   -2.9309 O   0  0  0  0  0  0  0  0  0  0  0  0
   17.0057   -7.6949   -2.1383 P   0  0  0  0  0  0  0  0  0  0  0  0
   15.6391   -7.6495   -2.7354 O   0  0  0  0  0  0  0  0  0  0  0  0
   17.0619   -7.0527   -0.6762 O   0  0  0  0  0  0  0  0  0  0  0  0
   17.6178   -9.1444   -1.9528 O   0  0  0  0  0  0  0  0  0  0  0  0
   16.7390  -10.4373   -1.6865 P   0  0  0  0  0  0  0  0  0  0  0  0
   15.8451  -10.3804   -0.4962 O   0  0  0  0  0  0  0  0  0  0  0  0
   15.9265  -10.6214   -3.0557 O   0  0  0  0  0  0  0  0  0  0  0  0
   17.7745  -11.6400   -1.7431 O   0  0  0  0  0  0  0  0  0  0  0  0
   18.5601  -12.1581   -0.4638 P   0  0  0  0  0  0  0  0  0  0  0  0
   17.8450  -13.1960    0.3306 O   0  0  0  0  0  0  0  0  0  0  0  0
   19.8916  -12.7758   -1.1189 O   0  0  0  0  0  0  0  0  0  0  0  0
   19.0920  -10.8717    0.2814 O   0  0  0  0  0  0  0  0  0  0  0  0
   19.8857  -10.8198    1.6486 P   0  0  0  0  0  0  0  0  0  0  0  0
   20.2020   -9.4377    2.1157 O   0  0  0  0  0  0  0  0  0  0  0  0
   18.9370  -11.5714    2.6875 O   0  0  0  0  0  0  0  0  0  0  0  0
   21.1400  -11.8053    1.5041 O   0  0  0  0  0  0  0  0  0  0  0  0
   22.3385  -11.3156    0.9115 C   0  0  0  0  0  0  0  0  0  0  0  0
   23.1628  -10.4814    1.9013 C   0  0  1  0  0  0  0  0  0  0  0  0
   23.4423  -11.2838    3.0800 O   0  0  0  0  0  0  0  0  0  0  0  0
   24.8550  -11.1834    3.3362 C   0  0  1  0  0  0  0  0  0  0  0  0
   25.2646  -12.3116    4.1432 N   0  0  0  0  0  0  0  0  0  0  0  0
   25.0442  -12.3926    5.5013 C   0  0  0  0  0  0  0  0  0  0  0  0
   25.5499  -13.4890    6.0266 N   0  0  0  0  0  0  0  0  0  0  0  0
   26.0996  -14.1497    4.9612 C   0  0  0  0  0  0  0  0  0  0  0  0
   26.7743  -15.4290    4.9015 C   0  0  0  0  0  0  0  0  0  0  0  0
   26.9845  -16.1784    5.8480 O   0  0  0  0  0  0  0  0  0  0  0  0
   27.1834  -15.7444    3.6129 N   0  0  0  0  0  0  0  0  0  0  0  0
   26.9837  -14.9416    2.5102 C   0  0  0  0  0  0  0  0  0  0  0  0
   27.4497  -15.4165    1.3289 N   0  0  0  0  0  0  0  0  0  0  0  0
   26.3931  -13.7774    2.5541 N   0  0  0  0  0  0  0  0  0  0  0  0
   25.9564  -13.4361    3.7904 C   0  0  0  0  0  0  0  0  0  0  0  0
   25.4941  -11.0087    1.9591 C   0  0  2  0  0  0  0  0  0  0  0  0
   26.8092  -10.4549    1.9851 O   0  0  0  0  0  0  0  0  0  0  0  0
   24.5120  -10.0380    1.3221 C   0  0  2  0  0  0  0  0  0  0  0  0
   24.8217   -8.7071    1.7567 O   0  0  0  0  0  0  0  0  0  0  0  0
   20.7115   -6.0271   -3.9032 C   0  0  1  0  0  0  0  0  0  0  0  0
   21.9485   -5.9214   -4.6280 O   0  0  0  0  0  0  0  0  0  0  0  0
   20.2502   -4.6346   -3.5180 C   0  0  1  0  0  0  0  0  0  0  0  0
   21.3780   -3.8313   -3.1500 O   0  0  0  0  0  0  0  0  0  0  0  0
   17.4813    0.0287   -3.4662 C   0  0  0  0  0  0  0  0  0  0  0  0
   16.4665    0.7058   -3.3381 O   0  0  0  0  0  0  0  0  0  0  0  0
   18.7345    0.5095   -3.1072 N   0  0  0  0  0  0  0  0  0  0  0  0
   21.8523   -0.1599   -2.7523 H   0  0  0  0  0  0  0  0  0  0  0  0
   20.9652    1.1184   -2.0862 H   0  0  0  0  0  0  0  0  0  0  0  0
   16.7247   -4.1331   -5.2238 H   0  0  0  0  0  0  0  0  0  0  0  0
   20.2487   -3.7699   -5.5351 H   0  0  0  0  0  0  0  0  0  0  0  0
   20.0298   -7.0601   -5.6981 H   0  0  0  0  0  0  0  0  0  0  0  0
   19.0341   -8.3933   -3.9475 H   0  0  0  0  0  0  0  0  0  0  0  0
   17.7113   -7.5666   -4.8115 H   0  0  0  0  0  0  0  0  0  0  0  0
   16.1702   -6.8392   -0.3404 H   0  0  0  0  0  0  0  0  0  0  0  0
   15.0327  -10.2257   -2.9997 H   0  0  0  0  0  0  0  0  0  0  0  0
   20.0577  -13.6602   -0.7360 H   0  0  0  0  0  0  0  0  0  0  0  0
   18.9358  -11.1207    3.5521 H   0  0  0  0  0  0  0  0  0  0  0  0
   22.0937  -10.7355    0.0148 H   0  0  0  0  0  0  0  0  0  0  0  0
   22.9095  -12.1956    0.5953 H   0  0  0  0  0  0  0  0  0  0  0  0
   22.5932   -9.6174    2.2488 H   0  0  0  0  0  0  0  0  0  0  0  0
   25.0318  -10.2902    3.9515 H   0  0  0  0  0  0  0  0  0  0  0  0
   24.5114  -11.6231    6.0469 H   0  0  0  0  0  0  0  0  0  0  0  0
   27.6123  -16.6488    3.5142 H   0  0  0  0  0  0  0  0  0  0  0  0
   28.2853  -15.9860    1.3524 H   0  0  0  0  0  0  0  0  0  0  0  0
   27.4638  -14.7166    0.5945 H   0  0  0  0  0  0  0  0  0  0  0  0
   25.4904  -11.9229    1.3599 H   0  0  0  0  0  0  0  0  0  0  0  0
   27.3870  -11.1470    2.3633 H   0  0  0  0  0  0  0  0  0  0  0  0
   24.5532  -10.0366    0.2289 H   0  0  0  0  0  0  0  0  0  0  0  0
   25.7982   -8.6368    1.7084 H   0  0  0  0  0  0  0  0  0  0  0  0
   20.9016   -6.6778   -3.0448 H   0  0  0  0  0  0  0  0  0  0  0  0
   22.4633   -5.2393   -4.1452 H   0  0  0  0  0  0  0  0  0  0  0  0
   19.5553   -4.6753   -2.6715 H   0  0  0  0  0  0  0  0  0  0  0  0
   21.0582   -2.9011   -3.1555 H   0  0  0  0  0  0  0  0  0  0  0  0
   18.7446    1.4615   -2.7827 H   0  0  0  0  0  0  0  0  0  0  0  0
  1  2  1  0  0  0  0
  1 56  1  0  0  0  0
  1 57  1  0  0  0  0
  2  3  2  0  0  0  0
  2 55  1  0  0  0  0
  3  4  1  0  0  0  0
  4  5  2  0  0  0  0
  4  8  1  0  0  0  0
  5  6  1  0  0  0  0
  5 53  1  0  0  0  0
  6  7  2  0  0  0  0
  7  8  1  0  0  0  0
  7 58  1  0  0  0  0
  8  9  1  0  0  0  0
  9 10  1  0  0  0  0
  9 51  1  0  0  0  0
  9 59  1  6  0  0  0
 10 11  1  0  0  0  0
 11 12  1  0  0  0  0
 11 49  1  0  0  0  0
 11 60  1  6  0  0  0
 12 13  1  0  0  0  0
 12 61  1  0  0  0  0
 12 62  1  0  0  0  0
 13 14  1  0  0  0  0
 14 15  2  0  0  0  0
 14 16  1  0  0  0  0
 14 17  1  0  0  0  0
 16 63  1  0  0  0  0
 17 18  1  0  0  0  0
 18 19  2  0  0  0  0
 18 20  1  0  0  0  0
 18 21  1  0  0  0  0
 20 64  1  0  0  0  0
 21 22  1  0  0  0  0
 22 23  2  0  0  0  0
 22 24  1  0  0  0  0
 22 25  1  0  0  0  0
 24 65  1  0  0  0  0
 25 26  1  0  0  0  0
 26 27  2  0  0  0  0
 26 28  1  0  0  0  0
 26 29  1  0  0  0  0
 28 66  1  0  0  0  0
 29 30  1  0  0  0  0
 30 31  1  0  0  0  0
 30 67  1  0  0  0  0
 30 68  1  0  0  0  0
 31 32  1  0  0  0  0
 31 47  1  0  0  0  0
 31 69  1  1  0  0  0
 32 33  1  0  0  0  0
 33 34  1  0  0  0  0
 33 45  1  0  0  0  0
 33 70  1  1  0  0  0
 34 35  1  0  0  0  0
 34 44  1  0  0  0  0
 35 36  2  0  0  0  0
 35 71  1  0  0  0  0
 36 37  1  0  0  0  0
 37 38  1  0  0  0  0
 37 44  2  0  0  0  0
 38 39  2  0  0  0  0
 38 40  1  0  0  0  0
 40 41  1  0  0  0  0
 40 72  1  0  0  0  0
 41 42  1  0  0  0  0
 41 43  2  0  0  0  0
 42 73  1  0  0  0  0
 42 74  1  0  0  0  0
 43 44  1  0  0  0  0
 45 46  1  0  0  0  0
 45 47  1  0  0  0  0
 45 75  1  6  0  0  0
 46 76  1  0  0  0  0
 47 48  1  0  0  0  0
 47 77  1  6  0  0  0
 48 78  1  0  0  0  0
 49 50  1  0  0  0  0
 49 51  1  0  0  0  0
 49 79  1  1  0  0  0
 50 80  1  0  0  0  0
 51 52  1  0  0  0  0
 51 81  1  1  0  0  0
 52 82  1  0  0  0  0
 53 54  2  0  0  0  0
 53 55  1  0  0  0  0
 55 83  1  0  0  0  0
M  END
$$$$
