CHEBI:15544
 OpenBabel04242412453D

 59 59  0  0  1  0  0  0  0  0999 V2000
    3.3378    4.7066   -9.9093 C   0  0  0  0  0  0  0  0  0  0  0  0
    4.5000    4.1329   -9.1149 C   0  0  0  0  0  0  0  0  0  0  0  0
    5.5855    5.1820   -8.8740 C   0  0  0  0  0  0  0  0  0  0  0  0
    6.7062    4.6952   -7.9497 C   0  0  0  0  0  0  0  0  0  0  0  0
    7.4959    3.5146   -8.5315 C   0  0  0  0  0  0  0  0  0  0  0  0
    8.6580    3.0372   -7.6532 C   0  0  2  0  0  0  0  0  0  0  0  0
    8.1469    2.5444   -6.4204 O   0  0  0  0  0  0  0  0  0  0  0  0
    9.6543    4.1185   -7.3461 C   0  0  0  0  0  0  0  0  0  0  0  0
   10.6969    4.4223   -8.1379 C   0  0  0  0  0  0  0  0  0  0  0  0
   11.7573    5.4888   -7.9193 C   0  0  1  0  0  0  0  0  0  0  0  0
   11.5665    6.6478   -8.9200 C   0  0  2  0  0  0  0  0  0  0  0  0
   12.8257    7.2584   -9.1941 O   0  0  0  0  0  0  0  0  0  0  0  0
   10.6318    7.6400   -8.2412 C   0  0  0  0  0  0  0  0  0  0  0  0
   10.8579    7.3569   -6.7813 C   0  0  0  0  0  0  0  0  0  0  0  0
   10.3331    8.0148   -5.8891 O   0  0  0  0  0  0  0  0  0  0  0  0
   11.7676    6.1720   -6.5321 C   0  0  2  0  0  0  0  0  0  0  0  0
   13.1683    6.6185   -6.0893 C   0  0  0  0  0  0  0  0  0  0  0  0
   13.1547    7.2033   -4.6733 C   0  0  0  0  0  0  0  0  0  0  0  0
   14.5654    7.4936   -4.1611 C   0  0  0  0  0  0  0  0  0  0  0  0
   14.5659    8.2338   -2.8191 C   0  0  0  0  0  0  0  0  0  0  0  0
   13.9621    7.4135   -1.6738 C   0  0  0  0  0  0  0  0  0  0  0  0
   13.9777    8.1659   -0.3455 C   0  0  0  0  0  0  0  0  0  0  0  0
   15.3645    8.4185    0.1747 C   0  0  0  0  0  0  0  0  0  0  0  0
   15.8386    9.5050    0.4579 O   0  0  0  0  0  0  0  0  0  0  0  0
   16.0755    7.2908    0.3597 O   0  0  0  0  0  0  0  0  0  0  0  0
    2.5955    3.9273  -10.1080 H   0  0  0  0  0  0  0  0  0  0  0  0
    3.6778    5.1059  -10.8701 H   0  0  0  0  0  0  0  0  0  0  0  0
    2.8451    5.5121   -9.3556 H   0  0  0  0  0  0  0  0  0  0  0  0
    4.9113    3.2825   -9.6690 H   0  0  0  0  0  0  0  0  0  0  0  0
    4.1289    3.7512   -8.1569 H   0  0  0  0  0  0  0  0  0  0  0  0
    5.1335    6.0739   -8.4227 H   0  0  0  0  0  0  0  0  0  0  0  0
    6.0135    5.4975   -9.8336 H   0  0  0  0  0  0  0  0  0  0  0  0
    6.2840    4.4217   -6.9757 H   0  0  0  0  0  0  0  0  0  0  0  0
    7.3816    5.5415   -7.7761 H   0  0  0  0  0  0  0  0  0  0  0  0
    7.8776    3.7876   -9.5231 H   0  0  0  0  0  0  0  0  0  0  0  0
    6.8146    2.6666   -8.6669 H   0  0  0  0  0  0  0  0  0  0  0  0
    9.1536    2.1956   -8.1519 H   0  0  0  0  0  0  0  0  0  0  0  0
    8.9038    2.2108   -5.9095 H   0  0  0  0  0  0  0  0  0  0  0  0
    9.4623    4.6721   -6.4299 H   0  0  0  0  0  0  0  0  0  0  0  0
   10.8210    3.8529   -9.0608 H   0  0  0  0  0  0  0  0  0  0  0  0
   12.7244    4.9970   -8.0864 H   0  0  0  0  0  0  0  0  0  0  0  0
   11.1594    6.3143   -9.8810 H   0  0  0  0  0  0  0  0  0  0  0  0
   12.6809    7.9658   -9.8479 H   0  0  0  0  0  0  0  0  0  0  0  0
    9.5846    7.4251   -8.4714 H   0  0  0  0  0  0  0  0  0  0  0  0
   10.8816    8.6806   -8.4632 H   0  0  0  0  0  0  0  0  0  0  0  0
   11.3372    5.5276   -5.7600 H   0  0  0  0  0  0  0  0  0  0  0  0
   13.5840    7.3647   -6.7749 H   0  0  0  0  0  0  0  0  0  0  0  0
   13.8391    5.7503   -6.1091 H   0  0  0  0  0  0  0  0  0  0  0  0
   12.6527    6.4982   -4.0021 H   0  0  0  0  0  0  0  0  0  0  0  0
   12.5768    8.1338   -4.6636 H   0  0  0  0  0  0  0  0  0  0  0  0
   15.0969    8.1116   -4.8953 H   0  0  0  0  0  0  0  0  0  0  0  0
   15.1275    6.5566   -4.0678 H   0  0  0  0  0  0  0  0  0  0  0  0
   14.0184    9.1785   -2.9244 H   0  0  0  0  0  0  0  0  0  0  0  0
   15.6027    8.4952   -2.5766 H   0  0  0  0  0  0  0  0  0  0  0  0
   14.5000    6.4627   -1.5811 H   0  0  0  0  0  0  0  0  0  0  0  0
   12.9188    7.1693   -1.9020 H   0  0  0  0  0  0  0  0  0  0  0  0
   13.4323    7.5992    0.4177 H   0  0  0  0  0  0  0  0  0  0  0  0
   13.4682    9.1303   -0.4532 H   0  0  0  0  0  0  0  0  0  0  0  0
   16.9316    7.6089    0.7150 H   0  0  0  0  0  0  0  0  0  0  0  0
  1  2  1  0  0  0  0
  1 26  1  0  0  0  0
  1 27  1  0  0  0  0
  1 28  1  0  0  0  0
  2  3  1  0  0  0  0
  2 29  1  0  0  0  0
  2 30  1  0  0  0  0
  3  4  1  0  0  0  0
  3 31  1  0  0  0  0
  3 32  1  0  0  0  0
  4  5  1  0  0  0  0
  4 33  1  0  0  0  0
  4 34  1  0  0  0  0
  5 35  1  0  0  0  0
  5 36  1  0  0  0  0
  6  8  1  0  0  0  0
  6  7  1  0  0  0  0
  6  5  1  0  0  0  0
  6 37  1  6  0  0  0
  7 38  1  0  0  0  0
  8  9  2  0  0  0  0
  8 39  1  0  0  0  0
  9 40  1  0  0  0  0
 10 11  1  0  0  0  0
 10 16  1  0  0  0  0
 10  9  1  0  0  0  0
 10 41  1  6  0  0  0
 11 13  1  0  0  0  0
 11 12  1  0  0  0  0
 11 42  1  6  0  0  0
 12 43  1  0  0  0  0
 13 14  1  0  0  0  0
 13 44  1  0  0  0  0
 13 45  1  0  0  0  0
 14 15  2  0  0  0  0
 14 16  1  0  0  0  0
 16 17  1  0  0  0  0
 16 46  1  1  0  0  0
 17 18  1  0  0  0  0
 17 47  1  0  0  0  0
 17 48  1  0  0  0  0
 18 19  1  0  0  0  0
 18 49  1  0  0  0  0
 18 50  1  0  0  0  0
 19 20  1  0  0  0  0
 19 51  1  0  0  0  0
 19 52  1  0  0  0  0
 20 21  1  0  0  0  0
 20 53  1  0  0  0  0
 20 54  1  0  0  0  0
 21 22  1  0  0  0  0
 21 55  1  0  0  0  0
 21 56  1  0  0  0  0
 22 23  1  0  0  0  0
 22 57  1  0  0  0  0
 22 58  1  0  0  0  0
 23 24  2  0  0  0  0
 23 25  1  0  0  0  0
 25 59  1  0  0  0  0
M  END
$$$$
