CHEBI:17767
 OpenBabel04242417153D

 24 23  0  0  1  0  0  0  0  0999 V2000
    9.8538   -0.6188   -2.5870 O   0  0  0  0  0  0  0  0  0  0  0  0
    8.8131   -0.2780   -1.9491 C   0  0  0  0  0  0  0  0  0  0  0  0
    7.6055   -0.6048   -2.1121 O   0  5  0  0  0  0  0  0  0  0  0  0
    9.0938    0.7129   -0.7949 C   0  0  1  0  0  0  0  0  0  0  0  0
   10.5065    1.1078   -0.8386 O   0  0  0  0  0  0  0  0  0  0  0  0
    8.2770    2.0008   -0.9087 C   0  0  1  0  0  0  0  0  0  0  0  0
    8.8306    2.9231    0.0657 O   0  0  0  0  0  0  0  0  0  0  0  0
    6.7455    1.9140   -0.7249 C   0  0  2  0  0  0  0  0  0  0  0  0
    6.0888    1.3841   -1.8965 O   0  0  0  0  0  0  0  0  0  0  0  0
    6.2234    1.1306    0.5005 C   0  0  2  0  0  0  0  0  0  0  0  0
    4.7881    1.0178    0.3569 O   0  0  0  0  0  0  0  0  0  0  0  0
    6.4991    1.8033    1.8504 C   0  0  0  0  0  0  0  0  0  0  0  0
    7.8614    1.7631    2.2482 O   0  0  0  0  0  0  0  0  0  0  0  0
    8.9550    0.2141    0.1684 H   0  0  0  0  0  0  0  0  0  0  0  0
   10.8557    0.5088   -1.5492 H   0  0  0  0  0  0  0  0  0  0  0  0
    8.4770    2.4522   -1.8892 H   0  0  0  0  0  0  0  0  0  0  0  0
    9.8008    2.7859   -0.0461 H   0  0  0  0  0  0  0  0  0  0  0  0
    6.3620    2.9390   -0.6403 H   0  0  0  0  0  0  0  0  0  0  0  0
    6.5219    0.5076   -2.0932 H   0  0  0  0  0  0  0  0  0  0  0  0
    6.6164    0.1090    0.4943 H   0  0  0  0  0  0  0  0  0  0  0  0
    4.6641    0.8824   -0.6079 H   0  0  0  0  0  0  0  0  0  0  0  0
    5.9159    1.3032    2.6319 H   0  0  0  0  0  0  0  0  0  0  0  0
    6.1629    2.8466    1.8437 H   0  0  0  0  0  0  0  0  0  0  0  0
    8.3526    2.3168    1.6027 H   0  0  0  0  0  0  0  0  0  0  0  0
  1  2  2  0  0  0  0
  2  3  1  0  0  0  0
  2  4  1  0  0  0  0
  4  5  1  0  0  0  0
  4  6  1  0  0  0  0
  4 14  1  1  0  0  0
  5 15  1  0  0  0  0
  6  7  1  0  0  0  0
  6 16  1  1  0  0  0
  7 17  1  0  0  0  0
  8  9  1  0  0  0  0
  8  6  1  0  0  0  0
  8 18  1  6  0  0  0
  9 19  1  0  0  0  0
 10 12  1  0  0  0  0
 10 11  1  0  0  0  0
 10  8  1  0  0  0  0
 10 20  1  1  0  0  0
 11 21  1  0  0  0  0
 12 13  1  0  0  0  0
 12 22  1  0  0  0  0
 12 23  1  0  0  0  0
 13 24  1  0  0  0  0
M  CHG  1   3  -1
M  END
$$$$
