CHEBI:16496
 OpenBabel04242414343D

 78 81  0  0  1  0  0  0  0  0999 V2000
    9.6976    1.1322   -1.2616 C   0  0  0  0  0  0  0  0  0  0  0  0
    9.4366   -0.1926   -0.5372 C   0  0  0  0  0  0  0  0  0  0  0  0
   10.4488   -0.3683    0.5951 C   0  0  0  0  0  0  0  0  0  0  0  0
    7.9817   -0.2231   -0.0360 C   0  0  0  0  0  0  0  0  0  0  0  0
    7.5516   -1.4792    0.7317 C   0  0  0  0  0  0  0  0  0  0  0  0
    7.5805   -2.7620   -0.1129 C   0  0  0  0  0  0  0  0  0  0  0  0
    7.0567   -4.0150    0.6472 C   0  0  1  0  0  0  0  0  0  0  0  0
    5.5543   -3.8669    0.9183 C   0  0  0  0  0  0  0  0  0  0  0  0
    7.3888   -5.3256   -0.1377 C   0  0  1  0  0  0  0  0  0  0  0  0
    8.9243   -5.5014   -0.3332 C   0  0  0  0  0  0  0  0  0  0  0  0
    9.2357   -6.9983   -0.2495 C   0  0  0  0  0  0  0  0  0  0  0  0
    7.8717   -7.6665   -0.3318 C   0  0  1  0  0  0  0  0  0  0  0  0
    7.7723   -9.1239    0.1509 C   0  0  2  0  0  0  0  0  0  0  0  0
    8.7759  -10.0614   -0.5443 C   0  0  2  0  0  0  0  0  0  0  0  0
    8.6233  -10.0107   -1.9583 O   0  0  0  0  0  0  0  0  0  0  0  0
    8.6202  -11.5080   -0.0650 C   0  0  0  0  0  0  0  0  0  0  0  0
    7.1798  -12.0589   -0.1183 C   0  0  2  0  0  0  0  0  0  0  0  0
    6.7973  -12.4554   -1.5588 C   0  0  0  0  0  0  0  0  0  0  0  0
    5.3832  -13.0166   -1.6484 C   0  0  2  0  0  0  0  0  0  0  0  0
    5.0655  -13.3199   -3.0022 O   0  0  0  0  0  0  0  0  0  0  0  0
    4.3744  -12.0177   -1.0987 C   0  0  0  0  0  0  0  0  0  0  0  0
    4.7042  -11.6707    0.3467 C   0  0  0  0  0  0  0  0  0  0  0  0
    6.1399  -11.1024    0.5607 C   0  0  1  0  0  0  0  0  0  0  0  0
    6.3711  -11.1265    2.0981 C   0  0  0  0  0  0  0  0  0  0  0  0
    6.3050   -9.6392   -0.0174 C   0  0  1  0  0  0  0  0  0  0  0  0
    5.2521   -8.6331    0.5323 C   0  0  0  0  0  0  0  0  0  0  0  0
    5.4892   -7.1527    0.1672 C   0  0  2  0  0  0  0  0  0  0  0  0
    5.1357   -6.9362   -1.1995 O   0  0  0  0  0  0  0  0  0  0  0  0
    6.9413   -6.7049    0.4596 C   0  0  2  0  0  0  0  0  0  0  0  0
    7.2020   -6.7419    1.9906 C   0  0  0  0  0  0  0  0  0  0  0  0
   10.7139    1.1610   -1.6686 H   0  0  0  0  0  0  0  0  0  0  0  0
    9.5804    1.9856   -0.5845 H   0  0  0  0  0  0  0  0  0  0  0  0
    9.0006    1.2638   -2.0961 H   0  0  0  0  0  0  0  0  0  0  0  0
    9.5861   -1.0001   -1.2634 H   0  0  0  0  0  0  0  0  0  0  0  0
   10.2727    0.3524    1.4010 H   0  0  0  0  0  0  0  0  0  0  0  0
   11.4715   -0.2230    0.2306 H   0  0  0  0  0  0  0  0  0  0  0  0
   10.3965   -1.3756    1.0195 H   0  0  0  0  0  0  0  0  0  0  0  0
    7.3067   -0.0907   -0.8917 H   0  0  0  0  0  0  0  0  0  0  0  0
    7.8140    0.6422    0.6194 H   0  0  0  0  0  0  0  0  0  0  0  0
    6.5355   -1.2895    1.0908 H   0  0  0  0  0  0  0  0  0  0  0  0
    8.1716   -1.6097    1.6257 H   0  0  0  0  0  0  0  0  0  0  0  0
    8.6132   -2.9295   -0.4330 H   0  0  0  0  0  0  0  0  0  0  0  0
    6.9884   -2.6162   -1.0249 H   0  0  0  0  0  0  0  0  0  0  0  0
    7.5732   -4.0501    1.6152 H   0  0  0  0  0  0  0  0  0  0  0  0
    4.9813   -3.8709   -0.0142 H   0  0  0  0  0  0  0  0  0  0  0  0
    5.3245   -2.9412    1.4519 H   0  0  0  0  0  0  0  0  0  0  0  0
    5.1759   -4.6628    1.5599 H   0  0  0  0  0  0  0  0  0  0  0  0
    6.9513   -5.2231   -1.1410 H   0  0  0  0  0  0  0  0  0  0  0  0
    9.5057   -4.9656    0.4253 H   0  0  0  0  0  0  0  0  0  0  0  0
    9.2202   -5.1070   -1.3126 H   0  0  0  0  0  0  0  0  0  0  0  0
    9.7412   -7.2313    0.6942 H   0  0  0  0  0  0  0  0  0  0  0  0
    9.9008   -7.3100   -1.0612 H   0  0  0  0  0  0  0  0  0  0  0  0
    7.5881   -7.6457   -1.3945 H   0  0  0  0  0  0  0  0  0  0  0  0
    8.0387   -9.1403    1.2114 H   0  0  0  0  0  0  0  0  0  0  0  0
    9.8019   -9.7458   -0.3206 H   0  0  0  0  0  0  0  0  0  0  0  0
    9.0637   -9.2038   -2.2757 H   0  0  0  0  0  0  0  0  0  0  0  0
    8.9783  -11.5687    0.9704 H   0  0  0  0  0  0  0  0  0  0  0  0
    9.2761  -12.1607   -0.6548 H   0  0  0  0  0  0  0  0  0  0  0  0
    7.1878  -12.9998    0.4524 H   0  0  0  0  0  0  0  0  0  0  0  0
    7.5034  -13.2045   -1.9401 H   0  0  0  0  0  0  0  0  0  0  0  0
    6.8778  -11.6073   -2.2453 H   0  0  0  0  0  0  0  0  0  0  0  0
    5.3213  -13.9551   -1.0852 H   0  0  0  0  0  0  0  0  0  0  0  0
    5.2174  -12.5181   -3.5311 H   0  0  0  0  0  0  0  0  0  0  0  0
    3.3664  -12.4464   -1.1583 H   0  0  0  0  0  0  0  0  0  0  0  0
    4.3471  -11.1157   -1.7216 H   0  0  0  0  0  0  0  0  0  0  0  0
    4.5935  -12.5909    0.9381 H   0  0  0  0  0  0  0  0  0  0  0  0
    3.9451  -10.9862    0.7398 H   0  0  0  0  0  0  0  0  0  0  0  0
    6.3204  -12.1527    2.4819 H   0  0  0  0  0  0  0  0  0  0  0  0
    5.6050  -10.5563    2.6327 H   0  0  0  0  0  0  0  0  0  0  0  0
    7.3452  -10.7314    2.3941 H   0  0  0  0  0  0  0  0  0  0  0  0
    6.1164   -9.6943   -1.0982 H   0  0  0  0  0  0  0  0  0  0  0  0
    5.1943   -8.7077    1.6216 H   0  0  0  0  0  0  0  0  0  0  0  0
    4.2660   -8.9153    0.1441 H   0  0  0  0  0  0  0  0  0  0  0  0
    4.7808   -6.5579    0.7478 H   0  0  0  0  0  0  0  0  0  0  0  0
    5.4953   -7.6581   -1.7386 H   0  0  0  0  0  0  0  0  0  0  0  0
    6.5195   -6.0773    2.5276 H   0  0  0  0  0  0  0  0  0  0  0  0
    8.2197   -6.4301    2.2453 H   0  0  0  0  0  0  0  0  0  0  0  0
    7.0542   -7.7332    2.4258 H   0  0  0  0  0  0  0  0  0  0  0  0
  1  2  1  0  0  0  0
  1 31  1  0  0  0  0
  1 32  1  0  0  0  0
  1 33  1  0  0  0  0
  2  3  1  0  0  0  0
  2  4  1  0  0  0  0
  2 34  1  0  0  0  0
  3 35  1  0  0  0  0
  3 36  1  0  0  0  0
  3 37  1  0  0  0  0
  4  5  1  0  0  0  0
  4 38  1  0  0  0  0
  4 39  1  0  0  0  0
  5  6  1  0  0  0  0
  5 40  1  0  0  0  0
  5 41  1  0  0  0  0
  6  7  1  0  0  0  0
  6 42  1  0  0  0  0
  6 43  1  0  0  0  0
  7  8  1  0  0  0  0
  7  9  1  0  0  0  0
  7 44  1  1  0  0  0
  8 45  1  0  0  0  0
  8 46  1  0  0  0  0
  8 47  1  0  0  0  0
  9 10  1  0  0  0  0
  9 29  1  0  0  0  0
  9 48  1  6  0  0  0
 10 11  1  0  0  0  0
 10 49  1  0  0  0  0
 10 50  1  0  0  0  0
 11 12  1  0  0  0  0
 11 51  1  0  0  0  0
 11 52  1  0  0  0  0
 12 13  1  0  0  0  0
 12 29  1  0  0  0  0
 12 53  1  6  0  0  0
 13 14  1  0  0  0  0
 13 25  1  0  0  0  0
 13 54  1  1  0  0  0
 14 15  1  0  0  0  0
 14 16  1  0  0  0  0
 14 55  1  1  0  0  0
 15 56  1  0  0  0  0
 16 17  1  0  0  0  0
 16 57  1  0  0  0  0
 16 58  1  0  0  0  0
 17 18  1  0  0  0  0
 17 23  1  0  0  0  0
 17 59  1  1  0  0  0
 18 19  1  0  0  0  0
 18 60  1  0  0  0  0
 18 61  1  0  0  0  0
 19 20  1  0  0  0  0
 19 21  1  0  0  0  0
 19 62  1  1  0  0  0
 20 63  1  0  0  0  0
 21 22  1  0  0  0  0
 21 64  1  0  0  0  0
 21 65  1  0  0  0  0
 22 23  1  0  0  0  0
 22 66  1  0  0  0  0
 22 67  1  0  0  0  0
 23 24  1  1  0  0  0
 23 25  1  0  0  0  0
 24 68  1  0  0  0  0
 24 69  1  0  0  0  0
 24 70  1  0  0  0  0
 25 26  1  0  0  0  0
 25 71  1  6  0  0  0
 26 27  1  0  0  0  0
 26 72  1  0  0  0  0
 26 73  1  0  0  0  0
 27 28  1  0  0  0  0
 27 29  1  0  0  0  0
 27 74  1  1  0  0  0
 28 75  1  0  0  0  0
 29 30  1  1  0  0  0
 30 76  1  0  0  0  0
 30 77  1  0  0  0  0
 30 78  1  0  0  0  0
M  END
$$$$
