CHEBI:16424
 OpenBabel04242414223D

 17 17  0  0  0  0  0  0  0  0999 V2000
    1.5977   -0.0403    2.9382 O   0  0  0  0  0  0  0  0  0  0  0  0
    2.5480    0.6214    2.5280 C   0  0  0  0  0  0  0  0  0  0  0  0
    2.9781    0.6468    1.0849 C   0  0  0  0  0  0  0  0  0  0  0  0
    4.4742    0.5352    0.9480 C   0  0  0  0  0  0  0  0  0  0  0  0
    5.0985   -0.7177    1.0246 C   0  0  0  0  0  0  0  0  0  0  0  0
    6.4864   -0.8228    0.9245 C   0  0  0  0  0  0  0  0  0  0  0  0
    7.2627    0.3216    0.7526 C   0  0  0  0  0  0  0  0  0  0  0  0
    6.6524    1.5724    0.6809 C   0  0  0  0  0  0  0  0  0  0  0  0
    5.2644    1.6807    0.7799 C   0  0  0  0  0  0  0  0  0  0  0  0
    3.0858    1.3084    3.2043 H   0  0  0  0  0  0  0  0  0  0  0  0
    2.6228    1.5844    0.6431 H   0  0  0  0  0  0  0  0  0  0  0  0
    2.4895   -0.1729    0.5463 H   0  0  0  0  0  0  0  0  0  0  0  0
    4.5071   -1.6213    1.1621 H   0  0  0  0  0  0  0  0  0  0  0  0
    6.9625   -1.7985    0.9815 H   0  0  0  0  0  0  0  0  0  0  0  0
    8.3436    0.2384    0.6746 H   0  0  0  0  0  0  0  0  0  0  0  0
    7.2591    2.4645    0.5472 H   0  0  0  0  0  0  0  0  0  0  0  0
    4.8073    2.6662    0.7215 H   0  0  0  0  0  0  0  0  0  0  0  0
  1  2  2  0  0  0  0
  2  3  1  0  0  0  0
  2 10  1  0  0  0  0
  3  4  1  0  0  0  0
  3 11  1  0  0  0  0
  3 12  1  0  0  0  0
  4  5  1  0  0  0  0
  4  9  2  0  0  0  0
  5  6  2  0  0  0  0
  5 13  1  0  0  0  0
  6  7  1  0  0  0  0
  6 14  1  0  0  0  0
  7  8  2  0  0  0  0
  7 15  1  0  0  0  0
  8  9  1  0  0  0  0
  8 16  1  0  0  0  0
  9 17  1  0  0  0  0
M  END
$$$$
