CHEBI:9242
 OpenBabel04242411383D

 56 57  0  0  0  0  0  0  0  0999 V2000
    7.6190   -2.3456    8.8137 C   0  0  0  0  0  0  0  0  0  0  0  0
    8.4544   -1.7814    7.6724 C   0  0  0  0  0  0  0  0  0  0  0  0
    7.7654   -2.0087    6.3203 C   0  0  0  0  0  0  0  0  0  0  0  0
    8.5712   -1.5741    5.1602 N   0  0  0  0  0  0  0  0  0  0  0  0
    8.0239   -2.1318    3.9084 C   0  0  0  0  0  0  0  0  0  0  0  0
    6.6371   -1.6459    3.4936 C   0  0  0  0  0  0  0  0  0  0  0  0
    8.7390   -0.1073    5.1318 C   0  0  0  0  0  0  0  0  0  0  0  0
    9.5579    0.4658    3.9676 C   0  0  0  0  0  0  0  0  0  0  0  0
   10.9804   -0.0311    3.8871 C   0  0  0  0  0  0  0  0  0  0  0  0
   11.6283    0.9678    3.0914 O   0  0  0  0  0  0  0  0  0  0  0  0
   10.9225    2.1872    3.3830 C   0  0  0  0  0  0  0  0  0  0  0  0
   10.5165    2.8551    2.0705 C   0  0  0  0  0  0  0  0  0  0  0  0
   11.7106    3.3870    1.2810 C   0  0  0  0  0  0  0  0  0  0  0  0
   12.6765    4.2917    2.0804 C   0  0  0  0  0  0  0  0  0  0  0  0
   12.3186    5.8314    2.1070 C   0  0  0  0  0  0  0  0  0  0  0  0
   10.9541    6.1655    2.7269 C   0  0  0  0  0  0  0  0  0  0  0  0
   13.3962    6.6209    2.8863 C   0  0  0  0  0  0  0  0  0  0  0  0
   12.3183    6.3908    0.6621 C   0  0  0  0  0  0  0  0  0  0  0  0
   13.0087    3.6323    3.4399 C   0  0  0  0  0  0  0  0  0  0  0  0
   11.8071    3.1071    4.2213 C   0  0  0  0  0  0  0  0  0  0  0  0
    9.7353    1.8814    4.1338 O   0  0  0  0  0  0  0  0  0  0  0  0
    8.1119   -2.1587    9.7728 H   0  0  0  0  0  0  0  0  0  0  0  0
    7.4836   -3.4264    8.7055 H   0  0  0  0  0  0  0  0  0  0  0  0
    6.6301   -1.8764    8.8435 H   0  0  0  0  0  0  0  0  0  0  0  0
    9.4411   -2.2587    7.6768 H   0  0  0  0  0  0  0  0  0  0  0  0
    8.6038   -0.7134    7.8614 H   0  0  0  0  0  0  0  0  0  0  0  0
    6.7879   -1.5105    6.3237 H   0  0  0  0  0  0  0  0  0  0  0  0
    7.5731   -3.0864    6.2334 H   0  0  0  0  0  0  0  0  0  0  0  0
    7.9983   -3.2262    3.9917 H   0  0  0  0  0  0  0  0  0  0  0  0
    8.7245   -1.9421    3.0871 H   0  0  0  0  0  0  0  0  0  0  0  0
    5.8757   -1.9163    4.2313 H   0  0  0  0  0  0  0  0  0  0  0  0
    6.3523   -2.1117    2.5443 H   0  0  0  0  0  0  0  0  0  0  0  0
    6.6103   -0.5623    3.3472 H   0  0  0  0  0  0  0  0  0  0  0  0
    9.2436    0.2175    6.0494 H   0  0  0  0  0  0  0  0  0  0  0  0
    7.7638    0.3971    5.1528 H   0  0  0  0  0  0  0  0  0  0  0  0
    9.0394    0.3248    3.0123 H   0  0  0  0  0  0  0  0  0  0  0  0
   11.0761   -1.0105    3.4107 H   0  0  0  0  0  0  0  0  0  0  0  0
   11.4731   -0.0549    4.8650 H   0  0  0  0  0  0  0  0  0  0  0  0
    9.7934    3.6508    2.2707 H   0  0  0  0  0  0  0  0  0  0  0  0
    9.9836    2.1310    1.4405 H   0  0  0  0  0  0  0  0  0  0  0  0
   11.3520    3.8800    0.3736 H   0  0  0  0  0  0  0  0  0  0  0  0
   12.2864    2.5203    0.9270 H   0  0  0  0  0  0  0  0  0  0  0  0
   13.6251    4.2542    1.5209 H   0  0  0  0  0  0  0  0  0  0  0  0
   10.8751    5.8215    3.7594 H   0  0  0  0  0  0  0  0  0  0  0  0
   10.1289    5.7438    2.1482 H   0  0  0  0  0  0  0  0  0  0  0  0
   10.7930    7.2507    2.7467 H   0  0  0  0  0  0  0  0  0  0  0  0
   13.3494    6.4224    3.9618 H   0  0  0  0  0  0  0  0  0  0  0  0
   13.2629    7.7024    2.7630 H   0  0  0  0  0  0  0  0  0  0  0  0
   14.4028    6.3721    2.5327 H   0  0  0  0  0  0  0  0  0  0  0  0
   11.4928    5.9905    0.0659 H   0  0  0  0  0  0  0  0  0  0  0  0
   13.2560    6.1576    0.1459 H   0  0  0  0  0  0  0  0  0  0  0  0
   12.2051    7.4816    0.6601 H   0  0  0  0  0  0  0  0  0  0  0  0
   13.5991    4.2934    4.0798 H   0  0  0  0  0  0  0  0  0  0  0  0
   13.6689    2.7771    3.2364 H   0  0  0  0  0  0  0  0  0  0  0  0
   11.2159    3.9324    4.6277 H   0  0  0  0  0  0  0  0  0  0  0  0
   12.1777    2.5574    5.0965 H   0  0  0  0  0  0  0  0  0  0  0  0
  1  2  1  0  0  0  0
  1 22  1  0  0  0  0
  1 23  1  0  0  0  0
  1 24  1  0  0  0  0
  2  3  1  0  0  0  0
  2 25  1  0  0  0  0
  2 26  1  0  0  0  0
  3  4  1  0  0  0  0
  3 27  1  0  0  0  0
  3 28  1  0  0  0  0
  4  5  1  0  0  0  0
  4  7  1  0  0  0  0
  5  6  1  0  0  0  0
  5 29  1  0  0  0  0
  5 30  1  0  0  0  0
  6 31  1  0  0  0  0
  6 32  1  0  0  0  0
  6 33  1  0  0  0  0
  7  8  1  0  0  0  0
  7 34  1  0  0  0  0
  7 35  1  0  0  0  0
  8  9  1  0  0  0  0
  8 21  1  0  0  0  0
  8 36  1  0  0  0  0
  9 10  1  0  0  0  0
  9 37  1  0  0  0  0
  9 38  1  0  0  0  0
 10 11  1  0  0  0  0
 11 12  1  0  0  0  0
 11 20  1  0  0  0  0
 11 21  1  0  0  0  0
 12 13  1  0  0  0  0
 12 39  1  0  0  0  0
 12 40  1  0  0  0  0
 13 14  1  0  0  0  0
 13 41  1  0  0  0  0
 13 42  1  0  0  0  0
 14 15  1  0  0  0  0
 14 19  1  0  0  0  0
 14 43  1  0  0  0  0
 15 16  1  0  0  0  0
 15 17  1  0  0  0  0
 15 18  1  0  0  0  0
 16 44  1  0  0  0  0
 16 45  1  0  0  0  0
 16 46  1  0  0  0  0
 17 47  1  0  0  0  0
 17 48  1  0  0  0  0
 17 49  1  0  0  0  0
 18 50  1  0  0  0  0
 18 51  1  0  0  0  0
 18 52  1  0  0  0  0
 19 20  1  0  0  0  0
 19 53  1  0  0  0  0
 19 54  1  0  0  0  0
 20 55  1  0  0  0  0
 20 56  1  0  0  0  0
M  END
$$$$
