CHEBI:18016
 OpenBabel04242423253D

 42 44  0  0  0  0  0  0  0  0999 V2000
    0.5332    0.8338    1.8100 C   0  0  0  0  0  0  0  0  0  0  0  0
    1.8953    1.2401    1.8550 O   0  0  0  0  0  0  0  0  0  0  0  0
    2.8032    0.3199    2.3132 C   0  0  0  0  0  0  0  0  0  0  0  0
    3.8988    0.9122    2.9522 C   0  0  0  0  0  0  0  0  0  0  0  0
    4.9312    0.1315    3.4628 C   0  0  0  0  0  0  0  0  0  0  0  0
    5.9557    0.7961    4.0784 O   0  0  0  0  0  0  0  0  0  0  0  0
    7.0188    0.0632    4.5662 C   0  0  0  0  0  0  0  0  0  0  0  0
    8.0532    0.9129    5.1724 C   0  0  0  0  0  0  0  0  0  0  0  0
    9.1891    1.2837    4.4327 C   0  0  0  0  0  0  0  0  0  0  0  0
   10.1602    2.1214    4.9908 C   0  0  0  0  0  0  0  0  0  0  0  0
    9.9885    2.5822    6.2901 C   0  0  0  0  0  0  0  0  0  0  0  0
   10.8971    3.4097    6.8897 O   0  0  0  0  0  0  0  0  0  0  0  0
    8.8660    2.2114    7.0272 C   0  0  0  0  0  0  0  0  0  0  0  0
    8.7081    2.6709    8.3039 O   0  0  0  0  0  0  0  0  0  0  0  0
    7.8953    1.3831    6.4817 C   0  0  0  0  0  0  0  0  0  0  0  0
    7.1322   -1.2776    4.5209 C   0  0  0  0  0  0  0  0  0  0  0  0
    8.2573   -1.9153    5.0224 O   0  0  0  0  0  0  0  0  0  0  0  0
    7.9992   -3.1255    5.7273 C   0  0  0  0  0  0  0  0  0  0  0  0
    6.0260   -2.0285    3.8557 C   0  0  0  0  0  0  0  0  0  0  0  0
    6.0223   -3.2501    3.7238 O   0  0  0  0  0  0  0  0  0  0  0  0
    4.8945   -1.2483    3.3241 C   0  0  0  0  0  0  0  0  0  0  0  0
    3.8114   -1.8594    2.6665 C   0  0  0  0  0  0  0  0  0  0  0  0
    3.7918   -3.2203    2.4694 O   0  0  0  0  0  0  0  0  0  0  0  0
    2.7490   -1.0791    2.1659 C   0  0  0  0  0  0  0  0  0  0  0  0
    1.7082   -1.5992    1.4391 O   0  0  0  0  0  0  0  0  0  0  0  0
    1.1424   -2.8071    1.9403 C   0  0  0  0  0  0  0  0  0  0  0  0
   -0.0809    1.7396    1.8359 H   0  0  0  0  0  0  0  0  0  0  0  0
    0.2527    0.2247    2.6761 H   0  0  0  0  0  0  0  0  0  0  0  0
    0.3150    0.3215    0.8687 H   0  0  0  0  0  0  0  0  0  0  0  0
    3.9403    1.9951    3.0508 H   0  0  0  0  0  0  0  0  0  0  0  0
    9.3176    0.9239    3.4138 H   0  0  0  0  0  0  0  0  0  0  0  0
   11.0269    2.3986    4.3999 H   0  0  0  0  0  0  0  0  0  0  0  0
   11.6086    3.5902    6.2513 H   0  0  0  0  0  0  0  0  0  0  0  0
    9.4976    3.2260    8.4631 H   0  0  0  0  0  0  0  0  0  0  0  0
    7.0251    1.1149    7.0734 H   0  0  0  0  0  0  0  0  0  0  0  0
    7.9501   -3.9695    5.0336 H   0  0  0  0  0  0  0  0  0  0  0  0
    7.0903   -3.0619    6.3356 H   0  0  0  0  0  0  0  0  0  0  0  0
    8.8423   -3.3045    6.4016 H   0  0  0  0  0  0  0  0  0  0  0  0
    4.6131   -3.6094    2.8462 H   0  0  0  0  0  0  0  0  0  0  0  0
    1.6084   -3.6726    1.4607 H   0  0  0  0  0  0  0  0  0  0  0  0
    0.0834   -2.8131    1.6631 H   0  0  0  0  0  0  0  0  0  0  0  0
    1.1956   -2.8786    3.0324 H   0  0  0  0  0  0  0  0  0  0  0  0
  1  2  1  0  0  0  0
  1 27  1  0  0  0  0
  1 28  1  0  0  0  0
  1 29  1  0  0  0  0
  2  3  1  0  0  0  0
  3  4  1  0  0  0  0
  3 24  2  0  0  0  0
  4  5  2  0  0  0  0
  4 30  1  0  0  0  0
  5  6  1  0  0  0  0
  5 21  1  0  0  0  0
  6  7  1  0  0  0  0
  7  8  1  0  0  0  0
  7 16  2  0  0  0  0
  8  9  1  0  0  0  0
  8 15  2  0  0  0  0
  9 10  2  0  0  0  0
  9 31  1  0  0  0  0
 10 11  1  0  0  0  0
 10 32  1  0  0  0  0
 11 12  1  0  0  0  0
 11 13  2  0  0  0  0
 12 33  1  0  0  0  0
 13 14  1  0  0  0  0
 13 15  1  0  0  0  0
 14 34  1  0  0  0  0
 15 35  1  0  0  0  0
 16 17  1  0  0  0  0
 16 19  1  0  0  0  0
 17 18  1  0  0  0  0
 18 36  1  0  0  0  0
 18 37  1  0  0  0  0
 18 38  1  0  0  0  0
 19 20  2  0  0  0  0
 19 21  1  0  0  0  0
 21 22  2  0  0  0  0
 22 23  1  0  0  0  0
 22 24  1  0  0  0  0
 23 39  1  0  0  0  0
 24 25  1  0  0  0  0
 25 26  1  0  0  0  0
 26 40  1  0  0  0  0
 26 41  1  0  0  0  0
 26 42  1  0  0  0  0
M  END
$$$$
