CHEBI:15401
 OpenBabel04242411493D

 33 35  0  0  1  0  0  0  0  0999 V2000
    1.0249   -0.0985    0.1734 O   0  0  0  0  0  0  0  0  0  0  0  0
    2.2349    0.0517   -0.0029 C   0  0  0  0  0  0  0  0  0  0  0  0
    3.0952   -1.1166   -0.2514 C   0  0  0  0  0  0  0  0  0  0  0  0
    2.5836   -2.4194   -0.2332 C   0  0  0  0  0  0  0  0  0  0  0  0
    1.2610   -2.7001   -0.0191 O   0  0  0  0  0  0  0  0  0  0  0  0
    3.4278   -3.5095   -0.4305 C   0  0  0  0  0  0  0  0  0  0  0  0
    4.7857   -3.2863   -0.6385 C   0  0  0  0  0  0  0  0  0  0  0  0
    5.6523   -4.3212   -0.8298 O   0  0  0  0  0  0  0  0  0  0  0  0
    5.3057   -1.9949   -0.6603 C   0  0  0  0  0  0  0  0  0  0  0  0
    4.4547   -0.9050   -0.4831 C   0  0  0  0  0  0  0  0  0  0  0  0
    5.0341    0.3339   -0.5202 O   0  0  0  0  0  0  0  0  0  0  0  0
    4.1191    1.3875   -0.8720 C   0  0  2  0  0  0  0  0  0  0  0  0
    4.9435    2.6666   -0.8866 C   0  0  0  0  0  0  0  0  0  0  0  0
    5.4505    3.1451   -2.1088 C   0  0  0  0  0  0  0  0  0  0  0  0
    6.2337    4.3014   -2.1604 C   0  0  0  0  0  0  0  0  0  0  0  0
    6.5217    4.9837   -0.9849 C   0  0  0  0  0  0  0  0  0  0  0  0
    7.2808    6.1160   -0.9869 O   0  0  0  0  0  0  0  0  0  0  0  0
    6.0469    4.5239    0.2358 C   0  0  0  0  0  0  0  0  0  0  0  0
    5.2675    3.3654    0.2876 C   0  0  0  0  0  0  0  0  0  0  0  0
    2.9128    1.4072    0.0768 C   0  0  1  0  0  0  0  0  0  0  0  0
    1.9646    2.4098   -0.2898 O   0  0  0  0  0  0  0  0  0  0  0  0
    0.7776   -1.8514    0.0997 H   0  0  0  0  0  0  0  0  0  0  0  0
    3.0139   -4.5129   -0.4122 H   0  0  0  0  0  0  0  0  0  0  0  0
    5.1593   -5.1582   -0.7880 H   0  0  0  0  0  0  0  0  0  0  0  0
    6.3689   -1.8406   -0.8256 H   0  0  0  0  0  0  0  0  0  0  0  0
    3.7612    1.2126   -1.8982 H   0  0  0  0  0  0  0  0  0  0  0  0
    5.2399    2.6144   -3.0353 H   0  0  0  0  0  0  0  0  0  0  0  0
    6.6082    4.6465   -3.1186 H   0  0  0  0  0  0  0  0  0  0  0  0
    7.5337    6.3159   -1.9029 H   0  0  0  0  0  0  0  0  0  0  0  0
    6.2861    5.0631    1.1481 H   0  0  0  0  0  0  0  0  0  0  0  0
    4.9262    3.0206    1.2596 H   0  0  0  0  0  0  0  0  0  0  0  0
    3.2015    1.5584    1.1227 H   0  0  0  0  0  0  0  0  0  0  0  0
    1.1248    2.1721    0.1506 H   0  0  0  0  0  0  0  0  0  0  0  0
  1  2  2  0  0  0  0
  2  3  1  0  0  0  0
  2 20  1  0  0  0  0
  3  4  1  0  0  0  0
  3 10  2  0  0  0  0
  4  5  1  0  0  0  0
  4  6  2  0  0  0  0
  5 22  1  0  0  0  0
  6  7  1  0  0  0  0
  6 23  1  0  0  0  0
  7  8  1  0  0  0  0
  7  9  2  0  0  0  0
  8 24  1  0  0  0  0
  9 10  1  0  0  0  0
  9 25  1  0  0  0  0
 10 11  1  0  0  0  0
 11 12  1  0  0  0  0
 12 13  1  0  0  0  0
 12 20  1  0  0  0  0
 12 26  1  6  0  0  0
 13 14  1  0  0  0  0
 13 19  2  0  0  0  0
 14 15  2  0  0  0  0
 14 27  1  0  0  0  0
 15 16  1  0  0  0  0
 15 28  1  0  0  0  0
 16 17  1  0  0  0  0
 16 18  2  0  0  0  0
 17 29  1  0  0  0  0
 18 19  1  0  0  0  0
 18 30  1  0  0  0  0
 19 31  1  0  0  0  0
 20 21  1  0  0  0  0
 20 32  1  1  0  0  0
 21 33  1  0  0  0  0
M  END
$$$$
