CHEBI:6116
 OpenBabel04242411063D

 30 32  0  0  1  0  0  0  0  0999 V2000
    0.1968    2.7000    3.2986 C   0  0  0  0  0  0  0  0  0  0  0  0
    1.5674    2.3994    3.5371 O   0  0  0  0  0  0  0  0  0  0  0  0
    2.4008    2.3151    2.4497 C   0  0  0  0  0  0  0  0  0  0  0  0
    3.7554    1.9986    2.8081 C   0  0  0  0  0  0  0  0  0  0  0  0
    4.7033    1.8670    1.8682 C   0  0  0  0  0  0  0  0  0  0  0  0
    6.1041    1.5345    2.1684 C   0  0  2  0  0  0  0  0  0  0  0  0
    6.9064    2.3227    3.0588 O   0  0  0  0  0  0  0  0  0  0  0  0
    7.2000    2.4532    1.6564 C   0  0  1  0  0  0  0  0  0  0  0  0
    8.4844    1.8537    1.1442 C   0  0  0  0  0  0  0  0  0  0  0  0
    8.5570    1.2959   -0.1437 C   0  0  0  0  0  0  0  0  0  0  0  0
    9.7443    0.7430   -0.6316 C   0  0  0  0  0  0  0  0  0  0  0  0
   10.8879    0.7382    0.1621 C   0  0  0  0  0  0  0  0  0  0  0  0
   10.8440    1.2877    1.4399 C   0  0  0  0  0  0  0  0  0  0  0  0
    9.6548    1.8410    1.9213 C   0  0  0  0  0  0  0  0  0  0  0  0
    4.3679    2.0397    0.4971 O   0  0  0  0  0  0  0  0  0  0  0  0
    3.0981    2.3571    0.1103 C   0  0  0  0  0  0  0  0  0  0  0  0
    2.7938    2.5240   -1.0657 O   0  0  0  0  0  0  0  0  0  0  0  0
    2.0781    2.4910    1.1619 C   0  0  0  0  0  0  0  0  0  0  0  0
   -0.3155    2.7260    4.2649 H   0  0  0  0  0  0  0  0  0  0  0  0
   -0.2734    1.9225    2.6876 H   0  0  0  0  0  0  0  0  0  0  0  0
    0.0877    3.6840    2.8313 H   0  0  0  0  0  0  0  0  0  0  0  0
    3.9943    1.8715    3.8604 H   0  0  0  0  0  0  0  0  0  0  0  0
    6.3014    0.4669    2.1642 H   0  0  0  0  0  0  0  0  0  0  0  0
    6.9005    3.3910    1.1967 H   0  0  0  0  0  0  0  0  0  0  0  0
    7.6736    1.2934   -0.7798 H   0  0  0  0  0  0  0  0  0  0  0  0
    9.7747    0.3181   -1.6317 H   0  0  0  0  0  0  0  0  0  0  0  0
   11.8122    0.3087   -0.2149 H   0  0  0  0  0  0  0  0  0  0  0  0
   11.7333    1.2880    2.0647 H   0  0  0  0  0  0  0  0  0  0  0  0
    9.6361    2.2672    2.9229 H   0  0  0  0  0  0  0  0  0  0  0  0
    1.0849    2.7325    0.8126 H   0  0  0  0  0  0  0  0  0  0  0  0
  1  2  1  0  0  0  0
  1 19  1  0  0  0  0
  1 20  1  0  0  0  0
  1 21  1  0  0  0  0
  2  3  1  0  0  0  0
  3  4  1  0  0  0  0
  3 18  2  0  0  0  0
  4  5  2  0  0  0  0
  4 22  1  0  0  0  0
  5  6  1  0  0  0  0
  5 15  1  0  0  0  0
  6  7  1  0  0  0  0
  6  8  1  0  0  0  0
  6 23  1  6  0  0  0
  7  8  1  0  0  0  0
  8  9  1  0  0  0  0
  8 24  1  6  0  0  0
  9 10  1  0  0  0  0
  9 14  2  0  0  0  0
 10 11  2  0  0  0  0
 10 25  1  0  0  0  0
 11 12  1  0  0  0  0
 11 26  1  0  0  0  0
 12 13  2  0  0  0  0
 12 27  1  0  0  0  0
 13 14  1  0  0  0  0
 13 28  1  0  0  0  0
 14 29  1  0  0  0  0
 15 16  1  0  0  0  0
 16 17  2  0  0  0  0
 16 18  1  0  0  0  0
 18 30  1  0  0  0  0
M  END
$$$$
