CHEBI:16422
 OpenBabel04242414223D

 47 50  0  0  1  0  0  0  0  0999 V2000
    0.9434    0.0920   -0.2059 C   0  0  0  0  0  0  0  0  0  0  0  0
    2.4848   -0.0868   -0.2142 C   0  0  2  0  0  0  0  0  0  0  0  0
    2.9447    0.4281   -1.6107 C   0  0  0  0  0  0  0  0  0  0  0  0
    4.4215    0.7714   -1.6850 C   0  0  0  0  0  0  0  0  0  0  0  0
    4.7438    1.8066   -0.6387 C   0  0  0  0  0  0  0  0  0  0  0  0
    5.5767    2.6910   -0.8163 O   0  0  0  0  0  0  0  0  0  0  0  0
    4.1069    1.6547    0.6907 C   0  0  0  0  0  0  0  0  0  0  0  0
    3.1266    0.7566    0.8942 C   0  0  0  0  0  0  0  0  0  0  0  0
    2.6994    0.4126    2.2979 C   0  0  0  0  0  0  0  0  0  0  0  0
    3.0317   -1.0537    2.5819 C   0  0  0  0  0  0  0  0  0  0  0  0
    2.4718   -2.0233    1.5125 C   0  0  2  0  0  0  0  0  0  0  0  0
    2.9061   -1.5765    0.0823 C   0  0  2  0  0  0  0  0  0  0  0  0
    2.3796   -2.5877   -0.9454 C   0  0  0  0  0  0  0  0  0  0  0  0
    2.9430   -3.9782   -0.6836 C   0  0  0  0  0  0  0  0  0  0  0  0
    2.6368   -4.5149    0.7127 C   0  0  2  0  0  0  0  0  0  0  0  0
    3.4314   -5.8154    0.9342 C   0  0  0  0  0  0  0  0  0  0  0  0
    1.1662   -4.8542    0.9193 C   0  0  0  0  0  0  0  0  0  0  0  0
    0.4418   -5.3573    0.0682 O   0  0  0  0  0  0  0  0  0  0  0  0
    0.6945   -4.5128    2.3106 C   0  0  0  0  0  0  0  0  0  0  0  0
    1.9787   -4.0418    2.9918 C   0  0  0  0  0  0  0  0  0  0  0  0
    2.8666   -3.4923    1.8539 C   0  0  1  0  0  0  0  0  0  0  0  0
    0.6720    1.1510   -0.2991 H   0  0  0  0  0  0  0  0  0  0  0  0
    0.4644   -0.2701    0.7069 H   0  0  0  0  0  0  0  0  0  0  0  0
    0.4795   -0.4362   -1.0462 H   0  0  0  0  0  0  0  0  0  0  0  0
    2.3873    1.3456   -1.8539 H   0  0  0  0  0  0  0  0  0  0  0  0
    2.6891   -0.2773   -2.4067 H   0  0  0  0  0  0  0  0  0  0  0  0
    4.6466    1.1916   -2.6714 H   0  0  0  0  0  0  0  0  0  0  0  0
    5.0560   -0.1064   -1.5301 H   0  0  0  0  0  0  0  0  0  0  0  0
    4.5563    2.2345    1.4893 H   0  0  0  0  0  0  0  0  0  0  0  0
    1.6287    0.5990    2.4312 H   0  0  0  0  0  0  0  0  0  0  0  0
    3.2121    1.0401    3.0374 H   0  0  0  0  0  0  0  0  0  0  0  0
    2.6448   -1.3084    3.5742 H   0  0  0  0  0  0  0  0  0  0  0  0
    4.1230   -1.1682    2.6357 H   0  0  0  0  0  0  0  0  0  0  0  0
    1.3788   -1.9601    1.5620 H   0  0  0  0  0  0  0  0  0  0  0  0
    4.0053   -1.6229    0.0474 H   0  0  0  0  0  0  0  0  0  0  0  0
    2.6773   -2.3048   -1.9589 H   0  0  0  0  0  0  0  0  0  0  0  0
    1.2848   -2.6244   -0.9312 H   0  0  0  0  0  0  0  0  0  0  0  0
    4.0314   -3.9411   -0.8277 H   0  0  0  0  0  0  0  0  0  0  0  0
    2.5551   -4.6625   -1.4489 H   0  0  0  0  0  0  0  0  0  0  0  0
    3.2442   -6.5283    0.1221 H   0  0  0  0  0  0  0  0  0  0  0  0
    3.1546   -6.3252    1.8631 H   0  0  0  0  0  0  0  0  0  0  0  0
    4.5081   -5.6176    0.9670 H   0  0  0  0  0  0  0  0  0  0  0  0
    0.2738   -5.3901    2.8069 H   0  0  0  0  0  0  0  0  0  0  0  0
   -0.0474   -3.7118    2.2510 H   0  0  0  0  0  0  0  0  0  0  0  0
    2.4735   -4.8909    3.4782 H   0  0  0  0  0  0  0  0  0  0  0  0
    1.7635   -3.3145    3.7790 H   0  0  0  0  0  0  0  0  0  0  0  0
    3.9200   -3.5070    2.1616 H   0  0  0  0  0  0  0  0  0  0  0  0
  1 22  1  0  0  0  0
  1 23  1  0  0  0  0
  1 24  1  0  0  0  0
  2  3  1  0  0  0  0
  2  8  1  0  0  0  0
  2 12  1  0  0  0  0
  2  1  1  6  0  0  0
  3  4  1  0  0  0  0
  3 25  1  0  0  0  0
  3 26  1  0  0  0  0
  4  5  1  0  0  0  0
  4 27  1  0  0  0  0
  4 28  1  0  0  0  0
  5  7  1  0  0  0  0
  5  6  2  0  0  0  0
  7  8  2  0  0  0  0
  7 29  1  0  0  0  0
  8  9  1  0  0  0  0
  9 10  1  0  0  0  0
  9 30  1  0  0  0  0
  9 31  1  0  0  0  0
 10 11  1  0  0  0  0
 10 32  1  0  0  0  0
 10 33  1  0  0  0  0
 11 12  1  0  0  0  0
 11 21  1  0  0  0  0
 11 34  1  6  0  0  0
 12 13  1  0  0  0  0
 12 35  1  1  0  0  0
 13 14  1  0  0  0  0
 13 36  1  0  0  0  0
 13 37  1  0  0  0  0
 14 15  1  0  0  0  0
 14 38  1  0  0  0  0
 14 39  1  0  0  0  0
 15 17  1  0  0  0  0
 15 21  1  0  0  0  0
 15 16  1  1  0  0  0
 16 40  1  0  0  0  0
 16 41  1  0  0  0  0
 16 42  1  0  0  0  0
 17 19  1  0  0  0  0
 17 18  2  0  0  0  0
 19 20  1  0  0  0  0
 19 43  1  0  0  0  0
 19 44  1  0  0  0  0
 20 21  1  0  0  0  0
 20 45  1  0  0  0  0
 20 46  1  0  0  0  0
 21 47  1  6  0  0  0
M  END
$$$$
