CHEBI:16135
 OpenBabel04242413523D

 14 13  0  0  0  0  0  0  0  0999 V2000
    1.0767    0.0973   -0.0616 C   0  0  0  0  0  0  0  0  0  0  0  0
    2.5993    0.1657   -0.0443 C   0  0  0  0  0  0  0  0  0  0  0  0
    3.1828    0.3376   -1.4421 C   0  0  0  0  0  0  0  0  0  0  0  0
    3.0879    1.2506    0.8961 C   0  0  0  0  0  0  0  0  0  0  0  0
    3.7439    1.0229    1.9022 O   0  0  0  0  0  0  0  0  0  0  0  0
    2.7374    2.5054    0.5403 O   0  0  0  0  0  0  0  0  0  0  0  0
    0.7350   -0.7650   -0.6436 H   0  0  0  0  0  0  0  0  0  0  0  0
    0.6337    0.9965   -0.5024 H   0  0  0  0  0  0  0  0  0  0  0  0
    0.6805   -0.0007    0.9549 H   0  0  0  0  0  0  0  0  0  0  0  0
    2.9738   -0.7843    0.3592 H   0  0  0  0  0  0  0  0  0  0  0  0
    2.7930    1.2316   -1.9399 H   0  0  0  0  0  0  0  0  0  0  0  0
    2.9412   -0.5265   -2.0698 H   0  0  0  0  0  0  0  0  0  0  0  0
    4.2733    0.4324   -1.3998 H   0  0  0  0  0  0  0  0  0  0  0  0
    2.2113    2.5629   -0.2780 H   0  0  0  0  0  0  0  0  0  0  0  0
  1  2  1  0  0  0  0
  1  7  1  0  0  0  0
  1  8  1  0  0  0  0
  1  9  1  0  0  0  0
  2  3  1  0  0  0  0
  2  4  1  0  0  0  0
  2 10  1  0  0  0  0
  3 11  1  0  0  0  0
  3 12  1  0  0  0  0
  3 13  1  0  0  0  0
  4  5  2  0  0  0  0
  4  6  1  0  0  0  0
  6 14  1  0  0  0  0
M  END
$$$$
