CHEBI:17058
 OpenBabel04242415473D

 75 78  0  0  1  0  0  0  0  0999 V2000
    6.9654   -0.2740   -2.0535 C   0  0  0  0  0  0  0  0  0  0  0  0
    6.3794    0.4197   -0.7879 C   0  0  2  0  0  0  0  0  0  0  0  0
    4.9231    0.8589   -1.1677 C   0  0  2  0  0  0  0  0  0  0  0  0
    4.2629    1.4567   -0.0620 O   0  0  0  0  0  0  0  0  0  0  0  0
    4.9362    1.9138   -2.3063 C   0  0  0  0  0  0  0  0  0  0  0  0
    3.6622    2.7566   -2.5044 C   0  0  0  0  0  0  0  0  0  0  0  0
    2.3643    1.9802   -2.7865 C   0  0  0  0  0  0  0  0  0  0  0  0
    1.2113    2.9680   -2.9983 C   0  0  0  0  0  0  0  0  0  0  0  0
    2.4997    1.0636   -4.0033 C   0  0  0  0  0  0  0  0  0  0  0  0
    2.0510    1.1841   -1.6377 O   0  0  0  0  0  0  0  0  0  0  0  0
    6.5931   -0.6105    0.4981 C   0  0  1  0  0  0  0  0  0  0  0  0
    7.2793   -0.7275    2.4157 C   0  0  0  0  0  0  0  0  0  0  0  0
    7.0925    0.5565    3.1078 C   0  0  0  0  0  0  0  0  0  0  0  0
    6.4765    0.5825    1.8101 C   0  0  1  0  0  0  0  0  0  0  0  0
    6.2047    1.9420    1.5405 O   0  0  0  0  0  0  0  0  0  0  0  0
    4.9944   -0.4750    2.0509 C   0  0  0  0  0  0  0  0  0  0  0  0
    3.8097    0.0555    2.3584 C   0  0  0  0  0  0  0  0  0  0  0  0
    2.6240   -0.7785    2.5891 C   0  0  0  0  0  0  0  0  0  0  0  0
    1.6355   -0.2394    3.0865 O   0  0  0  0  0  0  0  0  0  0  0  0
    2.5765   -2.2505    2.1757 C   0  0  2  0  0  0  0  0  0  0  0  0
    1.3972   -2.3409    1.1845 C   0  0  0  0  0  0  0  0  0  0  0  0
    1.3050   -3.6666    0.4800 C   0  0  0  0  0  0  0  0  0  0  0  0
    0.2272   -4.2357    0.2990 O   0  0  0  0  0  0  0  0  0  0  0  0
    2.5826   -4.2171   -0.1274 C   0  0  1  0  0  0  0  0  0  0  0  0
    2.4334   -4.3746   -1.5303 O   0  0  0  0  0  0  0  0  0  0  0  0
    3.7684   -3.2935    0.1666 C   0  0  0  0  0  0  0  0  0  0  0  0
    3.8956   -2.9557    1.6756 C   0  0  1  0  0  0  0  0  0  0  0  0
    4.0221   -4.2998    2.4712 C   0  0  0  0  0  0  0  0  0  0  0  0
    5.2044   -2.1400    2.0043 C   0  0  1  0  0  0  0  0  0  0  0  0
    6.7083   -2.9422    1.4277 C   0  0  0  0  0  0  0  0  0  0  0  0
    8.1193   -2.0465    0.8195 C   0  0  0  0  0  0  0  0  0  0  0  0
    7.8880   -0.2790    0.8370 C   0  0  2  0  0  0  0  0  0  0  0  0
    8.9985    0.5954    0.3303 C   0  0  0  0  0  0  0  0  0  0  0  0
    7.1425    0.4514   -2.8538 H   0  0  0  0  0  0  0  0  0  0  0  0
    6.2795   -1.0402   -2.4315 H   0  0  0  0  0  0  0  0  0  0  0  0
    7.9217   -0.7655   -1.8679 H   0  0  0  0  0  0  0  0  0  0  0  0
    6.9332    1.3535   -0.6489 H   0  0  0  0  0  0  0  0  0  0  0  0
    4.3480   -0.0242   -1.4670 H   0  0  0  0  0  0  0  0  0  0  0  0
    3.3117    1.4772   -0.3194 H   0  0  0  0  0  0  0  0  0  0  0  0
    5.7375    2.6366   -2.0976 H   0  0  0  0  0  0  0  0  0  0  0  0
    5.2005    1.4381   -3.2565 H   0  0  0  0  0  0  0  0  0  0  0  0
    3.8522    3.4545   -3.3312 H   0  0  0  0  0  0  0  0  0  0  0  0
    3.5227    3.3802   -1.6109 H   0  0  0  0  0  0  0  0  0  0  0  0
    1.3967    3.6294   -3.8511 H   0  0  0  0  0  0  0  0  0  0  0  0
    1.0581    3.5853   -2.1056 H   0  0  0  0  0  0  0  0  0  0  0  0
    0.2680    2.4377   -3.1722 H   0  0  0  0  0  0  0  0  0  0  0  0
    2.7905    1.6260   -4.8969 H   0  0  0  0  0  0  0  0  0  0  0  0
    1.5544    0.5505   -4.2121 H   0  0  0  0  0  0  0  0  0  0  0  0
    3.2387    0.2744   -3.8304 H   0  0  0  0  0  0  0  0  0  0  0  0
    1.1942    0.7510   -1.8118 H   0  0  0  0  0  0  0  0  0  0  0  0
    6.3079   -1.5445    0.0082 H   0  0  0  0  0  0  0  0  0  0  0  0
    8.3680   -0.9484    2.6265 H   0  0  0  0  0  0  0  0  0  0  0  0
    6.8932   -1.4902    3.0997 H   0  0  0  0  0  0  0  0  0  0  0  0
    7.9761    1.1866    3.2216 H   0  0  0  0  0  0  0  0  0  0  0  0
    6.4286    0.5679    3.9729 H   0  0  0  0  0  0  0  0  0  0  0  0
    5.3727    1.9552    1.0195 H   0  0  0  0  0  0  0  0  0  0  0  0
    3.6743    1.1249    2.4771 H   0  0  0  0  0  0  0  0  0  0  0  0
    2.2650   -2.7625    3.0985 H   0  0  0  0  0  0  0  0  0  0  0  0
    0.4507   -2.1678    1.7113 H   0  0  0  0  0  0  0  0  0  0  0  0
    1.4753   -1.5677    0.4090 H   0  0  0  0  0  0  0  0  0  0  0  0
    2.7551   -5.2127    0.2958 H   0  0  0  0  0  0  0  0  0  0  0  0
    1.6316   -4.9222   -1.6510 H   0  0  0  0  0  0  0  0  0  0  0  0
    3.6861   -2.3704   -0.4212 H   0  0  0  0  0  0  0  0  0  0  0  0
    4.6583   -3.7981   -0.2184 H   0  0  0  0  0  0  0  0  0  0  0  0
    3.1022   -4.8926    2.4388 H   0  0  0  0  0  0  0  0  0  0  0  0
    4.2196   -4.1151    3.5346 H   0  0  0  0  0  0  0  0  0  0  0  0
    4.8357   -4.9225    2.0857 H   0  0  0  0  0  0  0  0  0  0  0  0
    5.2863   -2.3271    3.0907 H   0  0  0  0  0  0  0  0  0  0  0  0
    6.4579   -3.6524    0.6350 H   0  0  0  0  0  0  0  0  0  0  0  0
    7.0740   -3.5512    2.2659 H   0  0  0  0  0  0  0  0  0  0  0  0
    8.2899   -2.3699   -0.2177 H   0  0  0  0  0  0  0  0  0  0  0  0
    9.0044   -2.3454    1.3972 H   0  0  0  0  0  0  0  0  0  0  0  0
    9.3117    0.3498   -0.6859 H   0  0  0  0  0  0  0  0  0  0  0  0
    9.8762    0.4643    0.9730 H   0  0  0  0  0  0  0  0  0  0  0  0
    8.7502    1.6598    0.3779 H   0  0  0  0  0  0  0  0  0  0  0  0
  1 34  1  0  0  0  0
  1 35  1  0  0  0  0
  1 36  1  0  0  0  0
  2  3  1  0  0  0  0
  2  1  1  0  0  0  0
  2 37  1  6  0  0  0
  3  5  1  0  0  0  0
  3  4  1  0  0  0  0
  3 38  1  1  0  0  0
  4 39  1  0  0  0  0
  5  6  1  0  0  0  0
  5 40  1  0  0  0  0
  5 41  1  0  0  0  0
  6  7  1  0  0  0  0
  6 42  1  0  0  0  0
  6 43  1  0  0  0  0
  7  8  1  0  0  0  0
  7  9  1  0  0  0  0
  7 10  1  0  0  0  0
  8 44  1  0  0  0  0
  8 45  1  0  0  0  0
  8 46  1  0  0  0  0
  9 47  1  0  0  0  0
  9 48  1  0  0  0  0
  9 49  1  0  0  0  0
 10 50  1  0  0  0  0
 11 12  1  0  0  0  0
 11 32  1  0  0  0  0
 11  2  1  0  0  0  0
 11 51  1  1  0  0  0
 12 13  1  0  0  0  0
 12 52  1  0  0  0  0
 12 53  1  0  0  0  0
 13 14  1  0  0  0  0
 13 54  1  0  0  0  0
 13 55  1  0  0  0  0
 14 15  1  1  0  0  0
 14 16  1  0  0  0  0
 14 32  1  0  0  0  0
 15 56  1  0  0  0  0
 16 17  2  0  0  0  0
 16 29  1  0  0  0  0
 17 18  1  0  0  0  0
 17 57  1  0  0  0  0
 18 19  2  0  0  0  0
 18 20  1  0  0  0  0
 20 21  1  0  0  0  0
 20 27  1  0  0  0  0
 20 58  1  6  0  0  0
 21 22  1  0  0  0  0
 21 59  1  0  0  0  0
 21 60  1  0  0  0  0
 22 23  2  0  0  0  0
 22 24  1  0  0  0  0
 24 25  1  0  0  0  0
 24 26  1  0  0  0  0
 24 61  1  1  0  0  0
 25 62  1  0  0  0  0
 26 27  1  0  0  0  0
 26 63  1  0  0  0  0
 26 64  1  0  0  0  0
 27 28  1  6  0  0  0
 27 29  1  0  0  0  0
 28 65  1  0  0  0  0
 28 66  1  0  0  0  0
 28 67  1  0  0  0  0
 29 30  1  0  0  0  0
 29 68  1  1  0  0  0
 30 31  1  0  0  0  0
 30 69  1  0  0  0  0
 30 70  1  0  0  0  0
 31 32  1  0  0  0  0
 31 71  1  0  0  0  0
 31 72  1  0  0  0  0
 32 33  1  1  0  0  0
 33 73  1  0  0  0  0
 33 74  1  0  0  0  0
 33 75  1  0  0  0  0
M  END
$$$$
