CHEBI:15943
 OpenBabel04242413313D

 19 18  0  0  0  0  0  0  0  0999 V2000
   -2.8586    5.0118   -1.8652 H   0  0  0  0  0  0  0  0  0  0  0  0
   -2.8427    4.1927   -2.4003 O   0  0  0  0  0  0  0  0  0  0  0  0
   -2.4416    3.1682   -1.4912 C   0  0  0  0  0  0  0  0  0  0  0  0
   -1.2468    3.6546   -0.6735 C   0  0  0  0  0  0  0  0  0  0  0  0
   -1.6364    4.8584    0.0132 O   0  0  0  0  0  0  0  0  0  0  0  0
   -0.7970    2.6098    0.3433 C   0  0  0  0  0  0  0  0  0  0  0  0
    0.3060    3.1414    1.0702 O   0  0  0  0  0  0  0  0  0  0  0  0
    0.9364    2.2455    2.2352 P   0  0  0  0  0  0  0  0  0  0  0  0
    2.1284    2.8078    2.9263 O   0  0  0  0  0  0  0  0  0  0  0  0
   -0.2709    1.9611    3.2379 O   0  0  0  0  0  0  0  0  0  0  0  0
    1.2011    0.8114    1.5912 O   0  0  0  0  0  0  0  0  0  0  0  0
   -2.1942    2.2720   -2.0675 H   0  0  0  0  0  0  0  0  0  0  0  0
   -3.2999    2.9508   -0.8469 H   0  0  0  0  0  0  0  0  0  0  0  0
   -0.4205    3.9377   -1.3356 H   0  0  0  0  0  0  0  0  0  0  0  0
   -0.8674    5.0993    0.5653 H   0  0  0  0  0  0  0  0  0  0  0  0
   -0.4942    1.6882   -0.1632 H   0  0  0  0  0  0  0  0  0  0  0  0
   -1.6064    2.3912    1.0475 H   0  0  0  0  0  0  0  0  0  0  0  0
   -0.2972    2.6311    3.9461 H   0  0  0  0  0  0  0  0  0  0  0  0
    1.8353    0.3047    2.1303 H   0  0  0  0  0  0  0  0  0  0  0  0
  1  2  1  0  0  0  0
  2  3  1  0  0  0  0
  3  4  1  0  0  0  0
  3 12  1  0  0  0  0
  3 13  1  0  0  0  0
  4  5  1  0  0  0  0
  4  6  1  0  0  0  0
  4 14  1  0  0  0  0
  5 15  1  0  0  0  0
  6  7  1  0  0  0  0
  6 16  1  0  0  0  0
  6 17  1  0  0  0  0
  7  8  1  0  0  0  0
  8  9  2  0  0  0  0
  8 10  1  0  0  0  0
  8 11  1  0  0  0  0
 10 18  1  0  0  0  0
 11 19  1  0  0  0  0
M  END
$$$$
