CHEBI:15383
 OpenBabel04242411483D

 26 26  0  0  1  0  0  0  0  0999 V2000
    2.6992   -0.4193   -1.3052 C   0  0  0  0  0  0  0  0  0  0  0  0
    2.4903    0.0576   -0.0659 C   0  0  0  0  0  0  0  0  0  0  0  0
    1.4902    1.1625    0.1629 C   0  0  0  0  0  0  0  0  0  0  0  0
    3.1950   -0.4549    1.1888 C   0  0  2  0  0  0  0  0  0  0  0  0
    4.3475    0.4888    1.5955 C   0  0  0  0  0  0  0  0  0  0  0  0
    5.2231   -0.0628    2.6872 C   0  0  0  0  0  0  0  0  0  0  0  0
    5.1917   -1.3435    3.0948 C   0  0  0  0  0  0  0  0  0  0  0  0
    6.0534   -1.8463    4.2165 C   0  0  0  0  0  0  0  0  0  0  0  0
    4.2869   -2.3622    2.4471 C   0  0  0  0  0  0  0  0  0  0  0  0
    3.7195   -1.8995    1.1009 C   0  0  0  0  0  0  0  0  0  0  0  0
    2.1646   -0.0205   -2.1629 H   0  0  0  0  0  0  0  0  0  0  0  0
    3.4123   -1.2095   -1.5133 H   0  0  0  0  0  0  0  0  0  0  0  0
    1.0115    1.4856   -0.7678 H   0  0  0  0  0  0  0  0  0  0  0  0
    1.9760    2.0377    0.6048 H   0  0  0  0  0  0  0  0  0  0  0  0
    0.6995    0.8228    0.8398 H   0  0  0  0  0  0  0  0  0  0  0  0
    2.4481   -0.4501    1.9971 H   0  0  0  0  0  0  0  0  0  0  0  0
    3.9309    1.4439    1.9381 H   0  0  0  0  0  0  0  0  0  0  0  0
    4.9845    0.7123    0.7301 H   0  0  0  0  0  0  0  0  0  0  0  0
    5.9029    0.6439    3.1583 H   0  0  0  0  0  0  0  0  0  0  0  0
    6.6782   -1.0544    4.6427 H   0  0  0  0  0  0  0  0  0  0  0  0
    6.7181   -2.6395    3.8592 H   0  0  0  0  0  0  0  0  0  0  0  0
    5.4303   -2.2498    5.0211 H   0  0  0  0  0  0  0  0  0  0  0  0
    3.4625   -2.5847    3.1359 H   0  0  0  0  0  0  0  0  0  0  0  0
    4.8342   -3.2987    2.2863 H   0  0  0  0  0  0  0  0  0  0  0  0
    2.9185   -2.5838    0.7955 H   0  0  0  0  0  0  0  0  0  0  0  0
    4.5117   -1.9725    0.3442 H   0  0  0  0  0  0  0  0  0  0  0  0
  1  2  2  0  0  0  0
  1 11  1  0  0  0  0
  1 12  1  0  0  0  0
  2  3  1  0  0  0  0
  2  4  1  0  0  0  0
  3 13  1  0  0  0  0
  3 14  1  0  0  0  0
  3 15  1  0  0  0  0
  4  5  1  0  0  0  0
  4 10  1  0  0  0  0
  4 16  1  1  0  0  0
  5  6  1  0  0  0  0
  5 17  1  0  0  0  0
  5 18  1  0  0  0  0
  6  7  2  0  0  0  0
  6 19  1  0  0  0  0
  7  8  1  0  0  0  0
  7  9  1  0  0  0  0
  8 20  1  0  0  0  0
  8 21  1  0  0  0  0
  8 22  1  0  0  0  0
  9 10  1  0  0  0  0
  9 23  1  0  0  0  0
  9 24  1  0  0  0  0
 10 25  1  0  0  0  0
 10 26  1  0  0  0  0
M  END
$$$$
