CHEBI:16570
 OpenBabel04242414473D

 25 24  0  0  1  0  0  0  0  0999 V2000
    2.8788    3.7167    2.3881 N   0  0  0  0  0  0  0  0  0  0  0  0
    1.8808    3.6663    1.2779 C   0  0  1  0  0  0  0  0  0  0  0  0
    2.4156    4.2892   -0.0170 C   0  0  0  0  0  0  0  0  0  0  0  0
    3.6938    3.6401   -0.5642 C   0  0  0  0  0  0  0  0  0  0  0  0
    4.1378    4.3271   -1.8613 C   0  0  0  0  0  0  0  0  0  0  0  0
    5.4144    3.7256   -2.4600 C   0  0  0  0  0  0  0  0  0  0  0  0
    5.2854    2.3054   -2.7964 N   0  0  0  0  0  0  0  0  0  0  0  0
    4.3155    2.2371   -3.8790 O   0  0  0  0  0  0  0  0  0  0  0  0
    1.4506    2.2059    1.0569 C   0  0  0  0  0  0  0  0  0  0  0  0
    0.5571    1.8394    0.3102 O   0  0  0  0  0  0  0  0  0  0  0  0
    2.2074    1.3535    1.7969 O   0  0  0  0  0  0  0  0  0  0  0  0
    2.3595    3.7946    3.2697 H   0  0  0  0  0  0  0  0  0  0  0  0
    3.3869    4.6031    2.3188 H   0  0  0  0  0  0  0  0  0  0  0  0
    0.9932    4.2191    1.6068 H   0  0  0  0  0  0  0  0  0  0  0  0
    2.6021    5.3573    0.1539 H   0  0  0  0  0  0  0  0  0  0  0  0
    1.6342    4.2295   -0.7858 H   0  0  0  0  0  0  0  0  0  0  0  0
    3.5128    2.5757   -0.7499 H   0  0  0  0  0  0  0  0  0  0  0  0
    4.5009    3.7102    0.1740 H   0  0  0  0  0  0  0  0  0  0  0  0
    4.3216    5.3898   -1.6590 H   0  0  0  0  0  0  0  0  0  0  0  0
    3.3250    4.2876   -2.5970 H   0  0  0  0  0  0  0  0  0  0  0  0
    6.2333    3.8336   -1.7396 H   0  0  0  0  0  0  0  0  0  0  0  0
    5.7020    4.2950   -3.3522 H   0  0  0  0  0  0  0  0  0  0  0  0
    6.1435    1.9944   -3.2600 H   0  0  0  0  0  0  0  0  0  0  0  0
    3.6563    1.6114   -3.5172 H   0  0  0  0  0  0  0  0  0  0  0  0
    2.8696    1.9250    2.2617 H   0  0  0  0  0  0  0  0  0  0  0  0
  1  2  1  0  0  0  0
  1 12  1  0  0  0  0
  1 13  1  0  0  0  0
  2  3  1  0  0  0  0
  2  9  1  0  0  0  0
  2 14  1  1  0  0  0
  3  4  1  0  0  0  0
  3 15  1  0  0  0  0
  3 16  1  0  0  0  0
  4  5  1  0  0  0  0
  4 17  1  0  0  0  0
  4 18  1  0  0  0  0
  5  6  1  0  0  0  0
  5 19  1  0  0  0  0
  5 20  1  0  0  0  0
  6  7  1  0  0  0  0
  6 21  1  0  0  0  0
  6 22  1  0  0  0  0
  7  8  1  0  0  0  0
  7 23  1  0  0  0  0
  8 24  1  0  0  0  0
  9 10  2  0  0  0  0
  9 11  1  0  0  0  0
 11 25  1  0  0  0  0
M  END
$$$$
