CHEBI:15662
 OpenBabel04242413023D

 30 29  0  0  0  0  0  0  0  0999 V2000
   -0.9844   -4.4483   -0.1236 C   0  0  0  0  0  0  0  0  0  0  0  0
   -0.1807   -3.4901    0.3618 C   0  0  0  0  0  0  0  0  0  0  0  0
    1.2798   -3.6246    0.7415 C   0  0  0  0  0  0  0  0  0  0  0  0
    1.4642   -3.1870    2.2003 C   0  0  0  0  0  0  0  0  0  0  0  0
    1.6919   -4.9882    0.6522 O   0  0  0  0  0  0  0  0  0  0  0  0
    2.1880   -2.7799   -0.1764 C   0  0  0  0  0  0  0  0  0  0  0  0
    2.2092   -3.2580   -1.6343 C   0  0  0  0  0  0  0  0  0  0  0  0
    3.1437   -2.4246   -2.4728 C   0  0  0  0  0  0  0  0  0  0  0  0
    2.8187   -1.4198   -3.3115 C   0  0  0  0  0  0  0  0  0  0  0  0
    1.4228   -0.8926   -3.5110 C   0  0  0  0  0  0  0  0  0  0  0  0
    3.8805   -0.7087   -4.1125 C   0  0  0  0  0  0  0  0  0  0  0  0
    3.6047   -0.8577   -5.4973 O   0  0  0  0  0  0  0  0  0  0  0  0
   -2.0201   -4.2304   -0.3667 H   0  0  0  0  0  0  0  0  0  0  0  0
   -0.6324   -5.4571   -0.3134 H   0  0  0  0  0  0  0  0  0  0  0  0
   -0.6073   -2.4961    0.4949 H   0  0  0  0  0  0  0  0  0  0  0  0
    0.8700   -3.8124    2.8778 H   0  0  0  0  0  0  0  0  0  0  0  0
    1.1742   -2.1419    2.3544 H   0  0  0  0  0  0  0  0  0  0  0  0
    2.5084   -3.3051    2.5125 H   0  0  0  0  0  0  0  0  0  0  0  0
    1.1175   -5.4981    1.2483 H   0  0  0  0  0  0  0  0  0  0  0  0
    3.2170   -2.8216    0.2070 H   0  0  0  0  0  0  0  0  0  0  0  0
    1.8798   -1.7260   -0.1375 H   0  0  0  0  0  0  0  0  0  0  0  0
    1.2015   -3.2633   -2.0597 H   0  0  0  0  0  0  0  0  0  0  0  0
    2.5588   -4.2965   -1.6838 H   0  0  0  0  0  0  0  0  0  0  0  0
    4.1921   -2.7099   -2.3794 H   0  0  0  0  0  0  0  0  0  0  0  0
    0.6981   -1.3139   -2.8101 H   0  0  0  0  0  0  0  0  0  0  0  0
    1.0737   -1.1114   -4.5252 H   0  0  0  0  0  0  0  0  0  0  0  0
    1.4072    0.1930   -3.3664 H   0  0  0  0  0  0  0  0  0  0  0  0
    4.8825   -1.1081   -3.9237 H   0  0  0  0  0  0  0  0  0  0  0  0
    3.8961    0.3588   -3.8715 H   0  0  0  0  0  0  0  0  0  0  0  0
    3.4241   -1.8023   -5.6426 H   0  0  0  0  0  0  0  0  0  0  0  0
  1  2  2  0  0  0  0
  1 13  1  0  0  0  0
  1 14  1  0  0  0  0
  2  3  1  0  0  0  0
  2 15  1  0  0  0  0
  3  4  1  0  0  0  0
  3  5  1  0  0  0  0
  3  6  1  0  0  0  0
  4 16  1  0  0  0  0
  4 17  1  0  0  0  0
  4 18  1  0  0  0  0
  5 19  1  0  0  0  0
  6  7  1  0  0  0  0
  6 20  1  0  0  0  0
  6 21  1  0  0  0  0
  7  8  1  0  0  0  0
  7 22  1  0  0  0  0
  7 23  1  0  0  0  0
  8  9  2  0  0  0  0
  8 24  1  0  0  0  0
  9 10  1  0  0  0  0
  9 11  1  0  0  0  0
 10 25  1  0  0  0  0
 10 26  1  0  0  0  0
 10 27  1  0  0  0  0
 11 12  1  0  0  0  0
 11 28  1  0  0  0  0
 11 29  1  0  0  0  0
 12 30  1  0  0  0  0
M  END
$$$$
