CHEBI:15992
 OpenBabel04242413363D

 21 22  0  0  0  0  0  0  0  0999 V2000
    1.0320    0.6960    0.2468 O   0  0  0  0  0  0  0  0  0  0  0  0
    2.0658    0.0728   -0.1681 C   0  0  0  0  0  0  0  0  0  0  0  0
    2.3940   -1.1161    0.1315 O   0  5  0  0  0  0  0  0  0  0  0  0
    2.9662    0.8462   -1.1024 C   0  0  0  0  0  0  0  0  0  0  0  0
    4.1300    0.2535   -1.6131 C   0  0  0  0  0  0  0  0  0  0  0  0
    4.9752    0.9525   -2.4786 C   0  0  0  0  0  0  0  0  0  0  0  0
    4.6818    2.2695   -2.8617 C   0  0  0  0  0  0  0  0  0  0  0  0
    5.5303    2.9752   -3.7328 C   0  0  0  0  0  0  0  0  0  0  0  0
    5.2380    4.2855   -4.1143 C   0  0  0  0  0  0  0  0  0  0  0  0
    4.0933    4.9082   -3.6298 C   0  0  0  0  0  0  0  0  0  0  0  0
    3.2420    4.2193   -2.7639 C   0  0  0  0  0  0  0  0  0  0  0  0
    3.5153    2.8946   -2.3636 C   0  0  0  0  0  0  0  0  0  0  0  0
    2.6746    2.1679   -1.4883 C   0  0  0  0  0  0  0  0  0  0  0  0
    1.5407    2.7948   -1.0117 O   0  0  0  0  0  0  0  0  0  0  0  0
    4.3736   -0.7688   -1.3265 H   0  0  0  0  0  0  0  0  0  0  0  0
    5.8659    0.4524   -2.8490 H   0  0  0  0  0  0  0  0  0  0  0  0
    6.4290    2.5018   -4.1201 H   0  0  0  0  0  0  0  0  0  0  0  0
    5.9037    4.8165   -4.7880 H   0  0  0  0  0  0  0  0  0  0  0  0
    3.8564    5.9272   -3.9202 H   0  0  0  0  0  0  0  0  0  0  0  0
    2.3481    4.7147   -2.3895 H   0  0  0  0  0  0  0  0  0  0  0  0
    1.0950    2.1255   -0.4219 H   0  0  0  0  0  0  0  0  0  0  0  0
  1  2  2  0  0  0  0
  2  3  1  0  0  0  0
  2  4  1  0  0  0  0
  4  5  1  0  0  0  0
  4 13  2  0  0  0  0
  5  6  2  0  0  0  0
  5 15  1  0  0  0  0
  6  7  1  0  0  0  0
  6 16  1  0  0  0  0
  7  8  1  0  0  0  0
  7 12  2  0  0  0  0
  8  9  2  0  0  0  0
  8 17  1  0  0  0  0
  9 10  1  0  0  0  0
  9 18  1  0  0  0  0
 10 11  2  0  0  0  0
 10 19  1  0  0  0  0
 11 12  1  0  0  0  0
 11 20  1  0  0  0  0
 12 13  1  0  0  0  0
 13 14  1  0  0  0  0
 14 21  1  0  0  0  0
M  CHG  1   3  -1
M  END
$$$$
