CHEBI:9997
 OpenBabel04242411413D

 73 75  0  0  1  0  0  0  0  0999 V2000
   -0.9677   -1.6948   -0.7229 C   0  0  0  0  0  0  0  0  0  0  0  0
   -0.2386   -2.0282   -1.9977 C   0  0  0  0  0  0  0  0  0  0  0  0
    0.6618   -3.0221   -2.1343 C   0  0  0  0  0  0  0  0  0  0  0  0
    1.0541   -4.0317   -1.0898 C   0  0  1  0  0  0  0  0  0  0  0  0
    1.4732   -5.2042   -1.7887 O   0  0  0  0  0  0  0  0  0  0  0  0
    2.2209   -3.5384   -0.2489 C   0  0  0  0  0  0  0  0  0  0  0  0
    2.3895   -4.3940    0.9901 C   0  0  0  0  0  0  0  0  0  0  0  0
    2.0396   -3.9670    2.0941 O   0  0  0  0  0  0  0  0  0  0  0  0
    3.0503   -5.7412    0.8326 C   0  0  0  0  0  0  0  0  0  0  0  0
    2.0811   -6.8484    0.9813 C   0  0  0  0  0  0  0  0  0  0  0  0
    0.7695   -6.8442    1.1097 N   0  0  0  0  0  0  0  0  0  0  0  0
    0.4145   -8.1887    1.1708 C   0  0  0  0  0  0  0  0  0  0  0  0
    1.5598   -8.9413    1.0321 C   0  0  0  0  0  0  0  0  0  0  0  0
    2.6263   -8.1045    0.9327 O   0  0  0  0  0  0  0  0  0  0  0  0
   -0.9744   -8.6545    1.2462 C   0  0  0  0  0  0  0  0  0  0  0  0
   -1.9119   -7.8862    1.0337 O   0  0  0  0  0  0  0  0  0  0  0  0
   -1.1810  -10.0029    1.5476 N   0  0  0  0  0  0  0  0  0  0  0  0
   -0.5895  -10.6530    2.7270 C   0  0  0  0  0  0  0  0  0  0  0  0
   -1.4624  -11.8827    2.9993 C   0  0  0  0  0  0  0  0  0  0  0  0
   -2.5161  -11.7782    1.9467 C   0  0  0  0  0  0  0  0  0  0  0  0
   -2.3207  -10.7012    1.1750 C   0  0  0  0  0  0  0  0  0  0  0  0
   -3.1957  -10.3877    0.0095 C   0  0  0  0  0  0  0  0  0  0  0  0
   -4.3648  -10.7301   -0.0819 O   0  0  0  0  0  0  0  0  0  0  0  0
   -2.4605   -9.7779   -0.9504 O   0  0  0  0  0  0  0  0  0  0  0  0
   -3.1289   -9.3240   -2.1671 C   0  0  2  0  0  0  0  0  0  0  0  0
   -2.2051   -9.7748   -3.3369 C   0  0  0  0  0  0  0  0  0  0  0  0
   -2.8174   -9.5640   -4.7261 C   0  0  0  0  0  0  0  0  0  0  0  0
   -1.8604  -11.2717   -3.2030 C   0  0  0  0  0  0  0  0  0  0  0  0
   -3.3535   -7.7919   -1.9540 C   0  0  2  0  0  0  0  0  0  0  0  0
   -4.6738   -7.5351   -1.2129 C   0  0  0  0  0  0  0  0  0  0  0  0
   -3.2911   -6.8766   -3.1494 C   0  0  0  0  0  0  0  0  0  0  0  0
   -2.4801   -5.8076   -3.1621 C   0  0  0  0  0  0  0  0  0  0  0  0
   -2.3509   -4.9167   -4.3369 C   0  0  0  0  0  0  0  0  0  0  0  0
   -2.5796   -5.2800   -5.4804 O   0  0  0  0  0  0  0  0  0  0  0  0
   -1.9159   -3.6726   -3.9705 N   0  0  0  0  0  0  0  0  0  0  0  0
   -1.5730   -2.6724   -4.9386 C   0  0  0  0  0  0  0  0  0  0  0  0
   -1.0593   -1.4092   -4.3083 C   0  0  0  0  0  0  0  0  0  0  0  0
   -0.5299   -1.1283   -3.1031 C   0  0  0  0  0  0  0  0  0  0  0  0
   -0.8100   -0.6448   -0.4512 H   0  0  0  0  0  0  0  0  0  0  0  0
   -0.6351   -2.2961    0.1275 H   0  0  0  0  0  0  0  0  0  0  0  0
   -2.0434   -1.8608   -0.8467 H   0  0  0  0  0  0  0  0  0  0  0  0
    1.1749   -3.1272   -3.0912 H   0  0  0  0  0  0  0  0  0  0  0  0
    0.2001   -4.3137   -0.4645 H   0  0  0  0  0  0  0  0  0  0  0  0
    0.6836   -5.5675   -2.2286 H   0  0  0  0  0  0  0  0  0  0  0  0
    2.0566   -2.5080    0.0900 H   0  0  0  0  0  0  0  0  0  0  0  0
    3.1660   -3.5504   -0.8048 H   0  0  0  0  0  0  0  0  0  0  0  0
    3.8353   -5.8172    1.5933 H   0  0  0  0  0  0  0  0  0  0  0  0
    3.5482   -5.8001   -0.1404 H   0  0  0  0  0  0  0  0  0  0  0  0
    1.7828   -9.9949    0.9611 H   0  0  0  0  0  0  0  0  0  0  0  0
   -0.5915   -9.9534    3.5706 H   0  0  0  0  0  0  0  0  0  0  0  0
    0.4411  -10.9501    2.5176 H   0  0  0  0  0  0  0  0  0  0  0  0
   -1.8948  -11.8520    4.0038 H   0  0  0  0  0  0  0  0  0  0  0  0
   -0.8891  -12.8088    2.8903 H   0  0  0  0  0  0  0  0  0  0  0  0
   -3.3267  -12.4843    1.8247 H   0  0  0  0  0  0  0  0  0  0  0  0
   -4.0950   -9.8323   -2.2818 H   0  0  0  0  0  0  0  0  0  0  0  0
   -1.2563   -9.2261   -3.2770 H   0  0  0  0  0  0  0  0  0  0  0  0
   -3.8796   -9.8291   -4.7397 H   0  0  0  0  0  0  0  0  0  0  0  0
   -2.3116  -10.1760   -5.4816 H   0  0  0  0  0  0  0  0  0  0  0  0
   -2.7095   -8.5324   -5.0654 H   0  0  0  0  0  0  0  0  0  0  0  0
   -2.7690  -11.8841   -3.1946 H   0  0  0  0  0  0  0  0  0  0  0  0
   -1.2995  -11.4785   -2.2863 H   0  0  0  0  0  0  0  0  0  0  0  0
   -1.2350  -11.6062   -4.0380 H   0  0  0  0  0  0  0  0  0  0  0  0
   -2.5638   -7.4578   -1.2696 H   0  0  0  0  0  0  0  0  0  0  0  0
   -5.5321   -7.8889   -1.7943 H   0  0  0  0  0  0  0  0  0  0  0  0
   -4.8165   -6.4654   -1.0192 H   0  0  0  0  0  0  0  0  0  0  0  0
   -4.6890   -8.0380   -0.2417 H   0  0  0  0  0  0  0  0  0  0  0  0
   -3.9441   -7.0743   -3.9961 H   0  0  0  0  0  0  0  0  0  0  0  0
   -1.8613   -5.5731   -2.3032 H   0  0  0  0  0  0  0  0  0  0  0  0
   -1.9278   -3.4154   -2.9957 H   0  0  0  0  0  0  0  0  0  0  0  0
   -2.4802   -2.4498   -5.5116 H   0  0  0  0  0  0  0  0  0  0  0  0
   -0.8319   -3.0808   -5.6341 H   0  0  0  0  0  0  0  0  0  0  0  0
   -1.1645   -0.5557   -4.9806 H   0  0  0  0  0  0  0  0  0  0  0  0
   -0.2878   -0.0842   -2.8948 H   0  0  0  0  0  0  0  0  0  0  0  0
  1  2  1  0  0  0  0
  1 39  1  0  0  0  0
  1 40  1  0  0  0  0
  1 41  1  0  0  0  0
  2  3  2  0  0  0  0
  2 38  1  0  0  0  0
  3  4  1  0  0  0  0
  3 42  1  0  0  0  0
  4  5  1  0  0  0  0
  4  6  1  0  0  0  0
  4 43  1  1  0  0  0
  5 44  1  0  0  0  0
  6  7  1  0  0  0  0
  6 45  1  0  0  0  0
  6 46  1  0  0  0  0
  7  8  2  0  0  0  0
  7  9  1  0  0  0  0
  9 10  1  0  0  0  0
  9 47  1  0  0  0  0
  9 48  1  0  0  0  0
 10 11  2  0  0  0  0
 10 14  1  0  0  0  0
 11 12  1  0  0  0  0
 12 13  2  0  0  0  0
 12 15  1  0  0  0  0
 13 14  1  0  0  0  0
 13 49  1  0  0  0  0
 15 16  2  0  0  0  0
 15 17  1  0  0  0  0
 17 18  1  0  0  0  0
 17 21  1  0  0  0  0
 18 19  1  0  0  0  0
 18 50  1  0  0  0  0
 18 51  1  0  0  0  0
 19 20  1  0  0  0  0
 19 52  1  0  0  0  0
 19 53  1  0  0  0  0
 20 21  2  0  0  0  0
 20 54  1  0  0  0  0
 21 22  1  0  0  0  0
 22 23  2  0  0  0  0
 22 24  1  0  0  0  0
 24 25  1  0  0  0  0
 25 29  1  0  0  0  0
 25 26  1  0  0  0  0
 25 55  1  6  0  0  0
 26 27  1  0  0  0  0
 26 28  1  0  0  0  0
 26 56  1  0  0  0  0
 27 57  1  0  0  0  0
 27 58  1  0  0  0  0
 27 59  1  0  0  0  0
 28 60  1  0  0  0  0
 28 61  1  0  0  0  0
 28 62  1  0  0  0  0
 29 31  1  0  0  0  0
 29 30  1  0  0  0  0
 29 63  1  1  0  0  0
 30 64  1  0  0  0  0
 30 65  1  0  0  0  0
 30 66  1  0  0  0  0
 31 32  2  0  0  0  0
 31 67  1  0  0  0  0
 32 33  1  0  0  0  0
 32 68  1  0  0  0  0
 33 34  2  0  0  0  0
 33 35  1  0  0  0  0
 35 36  1  0  0  0  0
 35 69  1  0  0  0  0
 36 37  1  0  0  0  0
 36 70  1  0  0  0  0
 36 71  1  0  0  0  0
 37 38  2  0  0  0  0
 37 72  1  0  0  0  0
 38 73  1  0  0  0  0
M  END
$$$$
