CHEBI:15609
 OpenBabel04242412533D

 13 12  0  0  0  0  0  0  0  0999 V2000
    1.5949    0.5890   -0.4179 N   0  0  0  0  0  0  0  0  0  0  0  0
    2.8366    0.1636    0.1736 C   0  0  0  0  0  0  0  0  0  0  0  0
    3.2473   -0.9107   -0.6586 N   0  0  0  0  0  0  0  0  0  0  0  0
    4.3644   -1.6163   -0.3272 C   0  0  0  0  0  0  0  0  0  0  0  0
    4.7159   -2.5033   -1.2920 N   0  0  0  0  0  0  0  0  0  0  0  0
    5.0005   -1.5024    0.7092 O   0  0  0  0  0  0  0  0  0  0  0  0
    1.2117    1.3450    0.1472 H   0  0  0  0  0  0  0  0  0  0  0  0
    0.9361   -0.1827   -0.3312 H   0  0  0  0  0  0  0  0  0  0  0  0
    2.7084   -0.1795    1.2051 H   0  0  0  0  0  0  0  0  0  0  0  0
    3.5895    0.9572    0.1429 H   0  0  0  0  0  0  0  0  0  0  0  0
    3.1265   -0.7386   -1.6438 H   0  0  0  0  0  0  0  0  0  0  0  0
    3.9585   -2.9439   -1.7934 H   0  0  0  0  0  0  0  0  0  0  0  0
    5.4640   -3.1251   -1.0116 H   0  0  0  0  0  0  0  0  0  0  0  0
  1  2  1  0  0  0  0
  1  7  1  0  0  0  0
  1  8  1  0  0  0  0
  2  3  1  0  0  0  0
  2  9  1  0  0  0  0
  2 10  1  0  0  0  0
  3  4  1  0  0  0  0
  3 11  1  0  0  0  0
  4  5  1  0  0  0  0
  4  6  2  0  0  0  0
  5 12  1  0  0  0  0
  5 13  1  0  0  0  0
M  END
$$$$
