CHEBI:17871
 OpenBabel04242423113D

 11 10  0  0  0  0  0  0  0  0999 V2000
    1.0890   -1.0359    0.7409 O   0  0  0  0  0  0  0  0  0  0  0  0
    1.7330   -0.1635    0.1645 C   0  0  0  0  0  0  0  0  0  0  0  0
    2.8843    0.5620    0.8023 C   0  0  0  0  0  0  0  0  0  0  0  0
    4.1300    0.3692   -0.0390 C   0  0  0  0  0  0  0  0  0  0  0  0
    4.0063    1.1193   -1.2419 O   0  0  0  0  0  0  0  0  0  0  0  0
    1.4672    0.1547   -0.8585 H   0  0  0  0  0  0  0  0  0  0  0  0
    3.0370    0.1587    1.8083 H   0  0  0  0  0  0  0  0  0  0  0  0
    2.6112    1.6193    0.8770 H   0  0  0  0  0  0  0  0  0  0  0  0
    4.2854   -0.6830   -0.2987 H   0  0  0  0  0  0  0  0  0  0  0  0
    5.0080    0.7374    0.5007 H   0  0  0  0  0  0  0  0  0  0  0  0
    4.8446    1.0212   -1.7284 H   0  0  0  0  0  0  0  0  0  0  0  0
  1  2  2  0  0  0  0
  2  3  1  0  0  0  0
  2  6  1  0  0  0  0
  3  4  1  0  0  0  0
  3  7  1  0  0  0  0
  3  8  1  0  0  0  0
  4  5  1  0  0  0  0
  4  9  1  0  0  0  0
  4 10  1  0  0  0  0
  5 11  1  0  0  0  0
M  END
$$$$
