CHEBI:15867
 OpenBabel04242413233D

 18 18  0  0  1  0  0  0  0  0999 V2000
    1.1832    0.0769    0.3662 O   0  0  0  0  0  0  0  0  0  0  0  0
    2.3319   -0.0598   -0.0482 C   0  0  0  0  0  0  0  0  0  0  0  0
    2.8681   -1.2821   -0.2725 O   0  0  0  0  0  0  0  0  0  0  0  0
    3.9109   -1.4537   -1.2494 C   0  0  0  0  0  0  0  0  0  0  0  0
    4.9390   -0.3357   -1.2605 C   0  0  1  0  0  0  0  0  0  0  0  0
    5.8227   -0.4836   -2.3703 O   0  0  0  0  0  0  0  0  0  0  0  0
    4.2085    0.9948   -1.3533 C   0  0  2  0  0  0  0  0  0  0  0  0
    5.1820    2.0532   -1.3453 O   0  0  0  0  0  0  0  0  0  0  0  0
    3.2683    1.1358   -0.1709 C   0  0  1  0  0  0  0  0  0  0  0  0
    2.5591    2.3723   -0.3139 O   0  0  0  0  0  0  0  0  0  0  0  0
    3.4389   -1.5690   -2.2328 H   0  0  0  0  0  0  0  0  0  0  0  0
    4.4073   -2.4079   -1.0402 H   0  0  0  0  0  0  0  0  0  0  0  0
    5.5483   -0.3665   -0.3491 H   0  0  0  0  0  0  0  0  0  0  0  0
    6.3053    0.3663   -2.4330 H   0  0  0  0  0  0  0  0  0  0  0  0
    3.6719    1.0820   -2.3062 H   0  0  0  0  0  0  0  0  0  0  0  0
    4.6638    2.8785   -1.2432 H   0  0  0  0  0  0  0  0  0  0  0  0
    3.8333    1.2116    0.7655 H   0  0  0  0  0  0  0  0  0  0  0  0
    1.7588    2.2895    0.2454 H   0  0  0  0  0  0  0  0  0  0  0  0
  1  2  2  0  0  0  0
  2  3  1  0  0  0  0
  2  9  1  0  0  0  0
  3  4  1  0  0  0  0
  4  5  1  0  0  0  0
  4 11  1  0  0  0  0
  4 12  1  0  0  0  0
  5  7  1  0  0  0  0
  5  6  1  0  0  0  0
  5 13  1  1  0  0  0
  6 14  1  0  0  0  0
  7  8  1  0  0  0  0
  7  9  1  0  0  0  0
  7 15  1  6  0  0  0
  8 16  1  0  0  0  0
  9 10  1  0  0  0  0
  9 17  1  1  0  0  0
 10 18  1  0  0  0  0
M  END
$$$$
