CHEBI:17105
 OpenBabel04242415513D

 20 19  0  0  0  0  0  0  0  0999 V2000
    3.1448    1.9620    2.5216 O   0  0  0  0  0  0  0  0  0  0  0  0
    3.7208    2.0855    1.3989 C   0  0  0  0  0  0  0  0  0  0  0  0
    3.7946    1.2678    0.4419 O   0  5  0  0  0  0  0  0  0  0  0  0
    4.5799    3.3404    1.2915 C   0  0  0  0  0  0  0  0  0  0  0  0
    4.9429    4.0003    0.1827 C   0  0  0  0  0  0  0  0  0  0  0  0
    4.5284    3.6534   -1.2040 C   0  0  0  0  0  0  0  0  0  0  0  0
    3.3501    3.7321   -1.5665 O   0  0  0  0  0  0  0  0  0  0  0  0
    5.6256    3.2613   -2.1508 C   0  0  0  0  0  0  0  0  0  0  0  0
    6.1462    4.3036   -3.1116 C   0  0  0  0  0  0  0  0  0  0  0  0
    7.3246    4.2255   -3.5003 O   0  0  0  0  0  0  0  0  0  0  0  0
    5.2037    5.2609   -3.7843 C   0  0  0  0  0  0  0  0  0  0  0  0
    4.7890    6.4097   -2.8939 C   0  0  0  0  0  0  0  0  0  0  0  0
    3.8627    7.1300   -3.3718 O   0  0  0  0  0  0  0  0  0  0  0  0
    5.4479    6.5676   -1.8289 O   0  5  0  0  0  0  0  0  0  0  0  0
    4.9287    3.7149    2.2499 H   0  0  0  0  0  0  0  0  0  0  0  0
    5.6000    4.8621    0.2422 H   0  0  0  0  0  0  0  0  0  0  0  0
    5.2673    2.4117   -2.7437 H   0  0  0  0  0  0  0  0  0  0  0  0
    6.4776    2.8938   -1.5649 H   0  0  0  0  0  0  0  0  0  0  0  0
    4.3428    4.7082   -4.1720 H   0  0  0  0  0  0  0  0  0  0  0  0
    5.7246    5.6978   -4.6465 H   0  0  0  0  0  0  0  0  0  0  0  0
  1  2  2  0  0  0  0
  2  3  1  0  0  0  0
  2  4  1  0  0  0  0
  4  5  2  0  0  0  0
  4 15  1  0  0  0  0
  5  6  1  0  0  0  0
  5 16  1  0  0  0  0
  6  7  2  0  0  0  0
  6  8  1  0  0  0  0
  8  9  1  0  0  0  0
  8 17  1  0  0  0  0
  8 18  1  0  0  0  0
  9 10  2  0  0  0  0
  9 11  1  0  0  0  0
 11 12  1  0  0  0  0
 11 19  1  0  0  0  0
 11 20  1  0  0  0  0
 12 13  2  0  0  0  0
 12 14  1  0  0  0  0
M  CHG  2   3  -1  14  -1
M  END
$$$$
