CHEBI:15444
 OpenBabel04242411543D

 24 24  0  0  1  0  0  0  0  0999 V2000
    0.9871   -0.2131   -0.1563 H   0  0  0  0  0  0  0  0  0  0  0  0
    1.9318   -0.0320   -0.0018 O   0  0  0  0  0  0  0  0  0  0  0  0
    2.4581    0.2854   -1.2850 C   0  0  1  0  0  0  0  0  0  0  0  0
    1.9460    1.5329   -1.7317 O   0  0  0  0  0  0  0  0  0  0  0  0
    2.3623    2.6461   -0.9253 C   0  0  2  0  0  0  0  0  0  0  0  0
    1.7217    3.9273   -1.4800 C   0  0  0  0  0  0  0  0  0  0  0  0
    1.9237    5.0460   -0.6229 O   0  0  0  0  0  0  0  0  0  0  0  0
    3.8949    2.7611   -0.9052 C   0  0  1  0  0  0  0  0  0  0  0  0
    4.3278    3.8530   -0.0847 O   0  0  0  0  0  0  0  0  0  0  0  0
    4.4981    1.4566   -0.3859 C   0  0  2  0  0  0  0  0  0  0  0  0
    5.9310    1.5466   -0.4611 O   0  0  0  0  0  0  0  0  0  0  0  0
    3.9957    0.2748   -1.2159 C   0  0  1  0  0  0  0  0  0  0  0  0
    4.4849   -0.9399   -0.6254 O   0  0  0  0  0  0  0  0  0  0  0  0
    2.1251   -0.4978   -1.9748 H   0  0  0  0  0  0  0  0  0  0  0  0
    1.9927    2.5167    0.1009 H   0  0  0  0  0  0  0  0  0  0  0  0
    0.6426    3.7866   -1.6036 H   0  0  0  0  0  0  0  0  0  0  0  0
    2.1228    4.1667   -2.4711 H   0  0  0  0  0  0  0  0  0  0  0  0
    2.8539    5.0026   -0.3113 H   0  0  0  0  0  0  0  0  0  0  0  0
    4.2736    2.9549   -1.9170 H   0  0  0  0  0  0  0  0  0  0  0  0
    5.2890    3.7045    0.0434 H   0  0  0  0  0  0  0  0  0  0  0  0
    4.2674    1.3200    0.6777 H   0  0  0  0  0  0  0  0  0  0  0  0
    6.2562    0.6315   -0.3379 H   0  0  0  0  0  0  0  0  0  0  0  0
    4.4180    0.3391   -2.2256 H   0  0  0  0  0  0  0  0  0  0  0  0
    3.8790   -1.1327    0.1198 H   0  0  0  0  0  0  0  0  0  0  0  0
  1  2  1  0  0  0  0
  2  3  1  0  0  0  0
  3  4  1  0  0  0  0
  3 12  1  0  0  0  0
  3 14  1  6  0  0  0
  4  5  1  0  0  0  0
  5  6  1  0  0  0  0
  5  8  1  0  0  0  0
  5 15  1  1  0  0  0
  6  7  1  0  0  0  0
  6 16  1  0  0  0  0
  6 17  1  0  0  0  0
  7 18  1  0  0  0  0
  8  9  1  0  0  0  0
  8 10  1  0  0  0  0
  8 19  1  6  0  0  0
  9 20  1  0  0  0  0
 10 11  1  0  0  0  0
 10 12  1  0  0  0  0
 10 21  1  1  0  0  0
 11 22  1  0  0  0  0
 12 13  1  0  0  0  0
 12 23  1  6  0  0  0
 13 24  1  0  0  0  0
M  END
$$$$
