CHEBI:16761
 OpenBabel04242415103D

 42 44  0  0  1  0  0  0  0  0999 V2000
    4.0382   -0.1536   -5.1232 N   0  0  0  0  0  0  0  0  0  0  0  0
    4.5271   -1.0766   -4.2058 C   0  0  0  0  0  0  0  0  0  0  0  0
    5.7689   -1.5765   -4.4019 N   0  0  0  0  0  0  0  0  0  0  0  0
    6.2435   -2.4771   -3.5150 C   0  0  0  0  0  0  0  0  0  0  0  0
    5.6395   -2.9573   -2.4107 N   0  0  0  0  0  0  0  0  0  0  0  0
    4.4233   -2.4159   -2.2467 C   0  0  0  0  0  0  0  0  0  0  0  0
    3.8034   -1.4956   -3.0761 C   0  0  0  0  0  0  0  0  0  0  0  0
    2.5551   -1.1618   -2.5918 N   0  0  0  0  0  0  0  0  0  0  0  0
    2.4236   -1.8695   -1.4893 C   0  0  0  0  0  0  0  0  0  0  0  0
    3.5281   -2.6437   -1.2379 N   0  0  0  0  0  0  0  0  0  0  0  0
    3.6857   -3.5221   -0.0960 C   0  0  2  0  0  0  0  0  0  0  0  0
    4.8524   -3.1094    0.6493 O   0  0  0  0  0  0  0  0  0  0  0  0
    5.7095   -4.2528    0.7967 C   0  0  2  0  0  0  0  0  0  0  0  0
    7.1695   -3.8234    0.7064 C   0  0  0  0  0  0  0  0  0  0  0  0
    8.0244   -4.9556    0.7480 O   0  0  0  0  0  0  0  0  0  0  0  0
    9.6006   -4.6527    0.8286 P   0  0  0  0  0  0  0  0  0  0  0  0
   10.0120   -3.2235    0.7306 O   0  0  0  0  0  0  0  0  0  0  0  0
    9.9743   -5.2636    2.2639 O   0  0  0  0  0  0  0  0  0  0  0  0
   10.2848   -5.6713   -0.1772 O   0  0  0  0  0  0  0  0  0  0  0  0
   10.2277   -5.4468   -1.7428 P   0  0  0  0  0  0  0  0  0  0  0  0
    8.9032   -5.1212   -2.3404 O   0  0  0  0  0  0  0  0  0  0  0  0
   11.3758   -4.3942   -2.0733 O   0  0  0  0  0  0  0  0  0  0  0  0
   10.8593   -6.7875   -2.3401 O   0  0  0  0  0  0  0  0  0  0  0  0
    5.3197   -5.2638   -0.2789 C   0  0  1  0  0  0  0  0  0  0  0  0
    5.5588   -6.6169    0.1166 O   0  0  0  0  0  0  0  0  0  0  0  0
    3.8313   -5.0074   -0.4396 C   0  0  1  0  0  0  0  0  0  0  0  0
    3.1069   -5.8068    0.5154 O   0  0  0  0  0  0  0  0  0  0  0  0
    4.7860    0.3127   -5.6195 H   0  0  0  0  0  0  0  0  0  0  0  0
    3.2951    0.4239   -4.7451 H   0  0  0  0  0  0  0  0  0  0  0  0
    7.2391   -2.8637   -3.7166 H   0  0  0  0  0  0  0  0  0  0  0  0
    1.5579   -1.8570   -0.8380 H   0  0  0  0  0  0  0  0  0  0  0  0
    2.8213   -3.3592    0.5587 H   0  0  0  0  0  0  0  0  0  0  0  0
    5.5326   -4.6873    1.7892 H   0  0  0  0  0  0  0  0  0  0  0  0
    7.4032   -3.1488    1.5382 H   0  0  0  0  0  0  0  0  0  0  0  0
    7.3530   -3.2687   -0.2202 H   0  0  0  0  0  0  0  0  0  0  0  0
   10.7233   -4.7764    2.6551 H   0  0  0  0  0  0  0  0  0  0  0  0
   11.3729   -4.1312   -3.0111 H   0  0  0  0  0  0  0  0  0  0  0  0
   10.1940   -7.4915   -2.4465 H   0  0  0  0  0  0  0  0  0  0  0  0
    5.8479   -5.0861   -1.2184 H   0  0  0  0  0  0  0  0  0  0  0  0
    6.5145   -6.6724    0.3155 H   0  0  0  0  0  0  0  0  0  0  0  0
    3.4536   -5.2798   -1.4296 H   0  0  0  0  0  0  0  0  0  0  0  0
    3.6210   -6.6407    0.5824 H   0  0  0  0  0  0  0  0  0  0  0  0
  1  2  1  0  0  0  0
  1 28  1  0  0  0  0
  1 29  1  0  0  0  0
  2  3  1  0  0  0  0
  2  7  2  0  0  0  0
  3  4  2  0  0  0  0
  4  5  1  0  0  0  0
  4 30  1  0  0  0  0
  5  6  2  0  0  0  0
  6  7  1  0  0  0  0
  6 10  1  0  0  0  0
  7  8  1  0  0  0  0
  8  9  2  0  0  0  0
  9 10  1  0  0  0  0
  9 31  1  0  0  0  0
 10 11  1  0  0  0  0
 11 12  1  0  0  0  0
 11 26  1  0  0  0  0
 11 32  1  1  0  0  0
 12 13  1  0  0  0  0
 13 14  1  0  0  0  0
 13 24  1  0  0  0  0
 13 33  1  1  0  0  0
 14 15  1  0  0  0  0
 14 34  1  0  0  0  0
 14 35  1  0  0  0  0
 15 16  1  0  0  0  0
 16 17  2  0  0  0  0
 16 18  1  0  0  0  0
 16 19  1  0  0  0  0
 18 36  1  0  0  0  0
 19 20  1  0  0  0  0
 20 21  2  0  0  0  0
 20 22  1  0  0  0  0
 20 23  1  0  0  0  0
 22 37  1  0  0  0  0
 23 38  1  0  0  0  0
 24 25  1  0  0  0  0
 24 26  1  0  0  0  0
 24 39  1  6  0  0  0
 25 40  1  0  0  0  0
 26 27  1  0  0  0  0
 26 41  1  6  0  0  0
 27 42  1  0  0  0  0
M  END
$$$$
