CHEBI:15799
 OpenBabel04242413173D

 66 65  0  0  1  0  0  0  0  0999 V2000
    0.6192   -0.9057   -1.2891 C   0  0  0  0  0  0  0  0  0  0  0  0
    1.9579   -0.3172   -0.8727 C   0  0  0  0  0  0  0  0  0  0  0  0
    2.6985    0.2920   -2.0634 C   0  0  0  0  0  0  0  0  0  0  0  0
    4.0488    0.8734   -1.6402 C   0  0  0  0  0  0  0  0  0  0  0  0
    4.7784    1.5144   -2.8229 C   0  0  0  0  0  0  0  0  0  0  0  0
    6.1294    2.0903   -2.3947 C   0  0  0  0  0  0  0  0  0  0  0  0
    6.8595    2.7474   -3.5684 C   0  0  0  0  0  0  0  0  0  0  0  0
    8.2132    3.3092   -3.1300 C   0  0  0  0  0  0  0  0  0  0  0  0
    8.9594    3.9650   -4.2942 C   0  0  0  0  0  0  0  0  0  0  0  0
   10.3236    4.4932   -3.8425 C   0  0  0  0  0  0  0  0  0  0  0  0
   11.1009    5.1163   -5.0043 C   0  0  0  0  0  0  0  0  0  0  0  0
   12.4468    5.7174   -4.5830 C   0  0  0  0  0  0  0  0  0  0  0  0
   13.4390    4.6764   -4.0582 C   0  0  0  0  0  0  0  0  0  0  0  0
   14.7990    5.3025   -3.7456 C   0  0  0  0  0  0  0  0  0  0  0  0
   15.7716    4.2615   -3.2017 C   0  0  0  0  0  0  0  0  0  0  0  0
   17.1119    4.8835   -2.9129 C   0  0  0  0  0  0  0  0  0  0  0  0
   18.0711    4.8388   -3.6711 O   0  0  0  0  0  0  0  0  0  0  0  0
   17.0925    5.5202   -1.7109 O   0  0  0  0  0  0  0  0  0  0  0  0
   18.3017    6.2250   -1.3687 C   0  0  0  0  0  0  0  0  0  0  0  0
   18.3808    7.5685   -2.1096 C   0  0  1  0  0  0  0  0  0  0  0  0
   17.3264    8.4285   -1.6472 O   0  0  0  0  0  0  0  0  0  0  0  0
   19.7247    8.2644   -1.8882 C   0  0  0  0  0  0  0  0  0  0  0  0
   19.9040    8.5127   -0.4978 O   0  0  0  0  0  0  0  0  0  0  0  0
   21.2792    9.1823   -0.0302 P   0  0  0  0  0  0  0  0  0  0  0  0
   21.3779    9.5317    1.4134 O   0  0  0  0  0  0  0  0  0  0  0  0
   22.4157    8.1559   -0.4758 O   0  0  0  0  0  0  0  0  0  0  0  0
   21.5284   10.4276   -0.9921 O   0  0  0  0  0  0  0  0  0  0  0  0
    0.0927   -1.3046   -0.4164 H   0  0  0  0  0  0  0  0  0  0  0  0
    0.7562   -1.7222   -2.0053 H   0  0  0  0  0  0  0  0  0  0  0  0
   -0.0180   -0.1454   -1.7519 H   0  0  0  0  0  0  0  0  0  0  0  0
    2.5692   -1.1034   -0.4144 H   0  0  0  0  0  0  0  0  0  0  0  0
    1.7901    0.4502   -0.1081 H   0  0  0  0  0  0  0  0  0  0  0  0
    2.0830    1.0810   -2.5123 H   0  0  0  0  0  0  0  0  0  0  0  0
    2.8533   -0.4744   -2.8326 H   0  0  0  0  0  0  0  0  0  0  0  0
    4.6712    0.0788   -1.2109 H   0  0  0  0  0  0  0  0  0  0  0  0
    3.8956    1.6235   -0.8547 H   0  0  0  0  0  0  0  0  0  0  0  0
    4.1573    2.3117   -3.2487 H   0  0  0  0  0  0  0  0  0  0  0  0
    4.9305    0.7665   -3.6106 H   0  0  0  0  0  0  0  0  0  0  0  0
    6.7522    1.2897   -1.9772 H   0  0  0  0  0  0  0  0  0  0  0  0
    5.9775    2.8293   -1.5985 H   0  0  0  0  0  0  0  0  0  0  0  0
    6.2421    3.5543   -3.9813 H   0  0  0  0  0  0  0  0  0  0  0  0
    7.0082    2.0112   -4.3676 H   0  0  0  0  0  0  0  0  0  0  0  0
    8.8253    2.5000   -2.7131 H   0  0  0  0  0  0  0  0  0  0  0  0
    8.0641    4.0450   -2.3303 H   0  0  0  0  0  0  0  0  0  0  0  0
    8.3599    4.7885   -4.7006 H   0  0  0  0  0  0  0  0  0  0  0  0
    9.0971    3.2345   -5.1005 H   0  0  0  0  0  0  0  0  0  0  0  0
   10.8959    3.6649   -3.4109 H   0  0  0  0  0  0  0  0  0  0  0  0
   10.1848    5.2400   -3.0515 H   0  0  0  0  0  0  0  0  0  0  0  0
   10.4952    5.9124   -5.4549 H   0  0  0  0  0  0  0  0  0  0  0  0
   11.2654    4.3643   -5.7856 H   0  0  0  0  0  0  0  0  0  0  0  0
   12.2815    6.4886   -3.8208 H   0  0  0  0  0  0  0  0  0  0  0  0
   12.8838    6.2224   -5.4535 H   0  0  0  0  0  0  0  0  0  0  0  0
   13.5640    3.8805   -4.8022 H   0  0  0  0  0  0  0  0  0  0  0  0
   13.0475    4.2118   -3.1466 H   0  0  0  0  0  0  0  0  0  0  0  0
   14.6750    6.1119   -3.0153 H   0  0  0  0  0  0  0  0  0  0  0  0
   15.2166    5.7601   -4.6511 H   0  0  0  0  0  0  0  0  0  0  0  0
   15.9224    3.4524   -3.9258 H   0  0  0  0  0  0  0  0  0  0  0  0
   15.3907    3.7946   -2.2860 H   0  0  0  0  0  0  0  0  0  0  0  0
   19.1748    5.5935   -1.5720 H   0  0  0  0  0  0  0  0  0  0  0  0
   18.2568    6.3869   -0.2861 H   0  0  0  0  0  0  0  0  0  0  0  0
   18.2164    7.4284   -3.1822 H   0  0  0  0  0  0  0  0  0  0  0  0
   17.5639    8.6923   -0.7384 H   0  0  0  0  0  0  0  0  0  0  0  0
   19.7272    9.2258   -2.4121 H   0  0  0  0  0  0  0  0  0  0  0  0
   20.5451    7.6456   -2.2649 H   0  0  0  0  0  0  0  0  0  0  0  0
   22.6980    7.6088    0.2806 H   0  0  0  0  0  0  0  0  0  0  0  0
   22.1490   11.0608   -0.5885 H   0  0  0  0  0  0  0  0  0  0  0  0
  1  2  1  0  0  0  0
  1 28  1  0  0  0  0
  1 29  1  0  0  0  0
  1 30  1  0  0  0  0
  2  3  1  0  0  0  0
  2 31  1  0  0  0  0
  2 32  1  0  0  0  0
  3  4  1  0  0  0  0
  3 33  1  0  0  0  0
  3 34  1  0  0  0  0
  4  5  1  0  0  0  0
  4 35  1  0  0  0  0
  4 36  1  0  0  0  0
  5  6  1  0  0  0  0
  5 37  1  0  0  0  0
  5 38  1  0  0  0  0
  6  7  1  0  0  0  0
  6 39  1  0  0  0  0
  6 40  1  0  0  0  0
  7  8  1  0  0  0  0
  7 41  1  0  0  0  0
  7 42  1  0  0  0  0
  8  9  1  0  0  0  0
  8 43  1  0  0  0  0
  8 44  1  0  0  0  0
  9 10  1  0  0  0  0
  9 45  1  0  0  0  0
  9 46  1  0  0  0  0
 10 11  1  0  0  0  0
 10 47  1  0  0  0  0
 10 48  1  0  0  0  0
 11 12  1  0  0  0  0
 11 49  1  0  0  0  0
 11 50  1  0  0  0  0
 12 13  1  0  0  0  0
 12 51  1  0  0  0  0
 12 52  1  0  0  0  0
 13 14  1  0  0  0  0
 13 53  1  0  0  0  0
 13 54  1  0  0  0  0
 14 15  1  0  0  0  0
 14 55  1  0  0  0  0
 14 56  1  0  0  0  0
 15 16  1  0  0  0  0
 15 57  1  0  0  0  0
 15 58  1  0  0  0  0
 16 17  2  0  0  0  0
 16 18  1  0  0  0  0
 18 19  1  0  0  0  0
 19 20  1  0  0  0  0
 19 59  1  0  0  0  0
 19 60  1  0  0  0  0
 20 21  1  0  0  0  0
 20 22  1  0  0  0  0
 20 61  1  6  0  0  0
 21 62  1  0  0  0  0
 22 23  1  0  0  0  0
 22 63  1  0  0  0  0
 22 64  1  0  0  0  0
 23 24  1  0  0  0  0
 24 25  2  0  0  0  0
 24 26  1  0  0  0  0
 24 27  1  0  0  0  0
 26 65  1  0  0  0  0
 27 66  1  0  0  0  0
M  END
$$$$
