CHEBI:16504
 OpenBabel04242414353D

 19 19  0  0  1  0  0  0  0  0999 V2000
    1.2434    0.4614   -0.1482 O   0  0  0  0  0  1  0  0  0  0  0  0
    2.4711    0.1891   -0.2247 C   0  0  0  0  0  0  0  0  0  0  0  0
    3.1555   -0.8943   -0.5894 C   0  0  0  0  0  0  0  0  0  0  0  0
    2.5647   -2.0600   -0.9986 O   0  0  0  0  0  0  0  0  0  0  0  0
    4.5963   -0.6289   -0.4785 C   0  0  0  0  0  0  0  0  0  0  0  0
    5.5117   -1.3972   -0.7229 O   0  0  0  0  0  0  0  0  0  0  0  0
    4.7555    0.6565   -0.0434 O   0  0  0  0  0  0  0  0  0  0  0  0
    3.4622    1.2599    0.1587 C   0  0  2  0  0  0  0  0  0  0  0  0
    3.3276    1.7303    1.6256 C   0  0  1  0  0  0  0  0  0  0  0  0
    2.0464    2.3536    1.8714 O   0  0  0  0  0  0  0  0  0  0  0  0
    4.3994    2.7619    1.9853 C   0  0  0  0  0  0  0  0  0  0  0  0
    4.1563    3.2573    3.3087 O   0  0  0  0  0  0  0  0  0  0  0  0
    1.6177   -1.8074   -0.9306 H   0  0  0  0  0  0  0  0  0  0  0  0
    3.3792    2.1158   -0.5252 H   0  0  0  0  0  0  0  0  0  0  0  0
    3.4071    0.8836    2.3185 H   0  0  0  0  0  0  0  0  0  0  0  0
    1.4273    1.8050    1.3185 H   0  0  0  0  0  0  0  0  0  0  0  0
    4.3555    3.6234    1.3108 H   0  0  0  0  0  0  0  0  0  0  0  0
    5.4064    2.3369    1.9542 H   0  0  0  0  0  0  0  0  0  0  0  0
    3.1771    3.3035    3.3550 H   0  0  0  0  0  0  0  0  0  0  0  0
  1  2  1  0  0  0  0
  2  3  2  0  0  0  0
  2  8  1  0  0  0  0
  3  4  1  0  0  0  0
  3  5  1  0  0  0  0
  4 13  1  0  0  0  0
  5  6  2  0  0  0  0
  5  7  1  0  0  0  0
  7  8  1  0  0  0  0
  8  9  1  0  0  0  0
  8 14  1  6  0  0  0
  9 10  1  0  0  0  0
  9 11  1  0  0  0  0
  9 15  1  6  0  0  0
 10 16  1  0  0  0  0
 11 12  1  0  0  0  0
 11 17  1  0  0  0  0
 11 18  1  0  0  0  0
 12 19  1  0  0  0  0
M  END
$$$$
