CHEBI:18102
 OpenBabel04242423323D

 49 48  0  0  1  0  0  0  0  0999 V2000
    2.9069    1.1666   -3.0386 C   0  0  0  0  0  0  0  0  0  0  0  0
    4.0636    0.1890   -2.9093 C   0  0  0  0  0  0  0  0  0  0  0  0
    3.7335   -0.9473   -1.9405 C   0  0  0  0  0  0  0  0  0  0  0  0
    4.8102   -2.0358   -1.9026 C   0  0  0  0  0  0  0  0  0  0  0  0
    6.1720   -1.5282   -1.4203 C   0  0  0  0  0  0  0  0  0  0  0  0
    7.2074   -2.6418   -1.2358 C   0  0  0  0  0  0  0  0  0  0  0  0
    7.5122   -3.4484   -2.4924 C   0  0  0  0  0  0  0  0  0  0  0  0
    8.1946   -2.6513   -3.5781 C   0  0  0  0  0  0  0  0  0  0  0  0
    7.6424   -2.1997   -4.5723 O   0  0  0  0  0  0  0  0  0  0  0  0
    9.5203   -2.5385   -3.3160 O   0  0  0  0  0  0  0  0  0  0  0  0
   10.4028   -2.2656   -4.4504 C   0  0  2  0  0  0  0  0  0  0  0  0
   11.7436   -2.8122   -3.9702 C   0  0  0  0  0  0  0  0  0  0  0  0
   12.6517   -2.8080   -5.1681 C   0  0  0  0  0  0  0  0  0  0  0  0
   13.5194   -1.8939   -5.1598 O   0  0  0  0  0  0  0  0  0  0  0  0
   12.3214   -3.5927   -6.0959 O   0  5  0  0  0  0  0  0  0  0  0  0
   10.4239   -0.7403   -4.7603 C   0  0  0  0  0  0  0  0  0  0  0  0
   10.3657   -0.2751   -6.2516 N   0  3  0  0  0  0  0  0  0  0  0  0
   10.0768    1.2190   -6.2550 C   0  0  0  0  0  0  0  0  0  0  0  0
   11.7070   -0.4760   -6.9636 C   0  0  0  0  0  0  0  0  0  0  0  0
    9.2855   -0.9889   -7.0415 C   0  0  0  0  0  0  0  0  0  0  0  0
    3.1765    1.9820   -3.7172 H   0  0  0  0  0  0  0  0  0  0  0  0
    2.6509    1.6022   -2.0677 H   0  0  0  0  0  0  0  0  0  0  0  0
    2.0176    0.6707   -3.4401 H   0  0  0  0  0  0  0  0  0  0  0  0
    4.9452    0.7380   -2.5616 H   0  0  0  0  0  0  0  0  0  0  0  0
    4.3019   -0.2197   -3.8981 H   0  0  0  0  0  0  0  0  0  0  0  0
    2.7866   -1.4142   -2.2396 H   0  0  0  0  0  0  0  0  0  0  0  0
    3.5814   -0.5432   -0.9324 H   0  0  0  0  0  0  0  0  0  0  0  0
    4.9017   -2.4693   -2.9046 H   0  0  0  0  0  0  0  0  0  0  0  0
    4.4672   -2.8388   -1.2384 H   0  0  0  0  0  0  0  0  0  0  0  0
    6.0423   -1.0194   -0.4567 H   0  0  0  0  0  0  0  0  0  0  0  0
    6.5701   -0.7846   -2.1184 H   0  0  0  0  0  0  0  0  0  0  0  0
    6.8510   -3.3295   -0.4585 H   0  0  0  0  0  0  0  0  0  0  0  0
    8.1330   -2.1934   -0.8541 H   0  0  0  0  0  0  0  0  0  0  0  0
    6.6116   -3.9073   -2.9125 H   0  0  0  0  0  0  0  0  0  0  0  0
    8.1695   -4.2894   -2.2365 H   0  0  0  0  0  0  0  0  0  0  0  0
   10.0326   -2.8567   -5.2917 H   0  0  0  0  0  0  0  0  0  0  0  0
   12.1456   -2.2122   -3.1455 H   0  0  0  0  0  0  0  0  0  0  0  0
   11.6376   -3.8351   -3.5896 H   0  0  0  0  0  0  0  0  0  0  0  0
   11.3032   -0.2539   -4.3210 H   0  0  0  0  0  0  0  0  0  0  0  0
    9.5482   -0.2751   -4.2905 H   0  0  0  0  0  0  0  0  0  0  0  0
   10.8606    1.7272   -5.6850 H   0  0  0  0  0  0  0  0  0  0  0  0
    9.0972    1.3878   -5.7984 H   0  0  0  0  0  0  0  0  0  0  0  0
   10.0705    1.5757   -7.2902 H   0  0  0  0  0  0  0  0  0  0  0  0
   12.4979   -0.0543   -6.3412 H   0  0  0  0  0  0  0  0  0  0  0  0
   11.6720    0.0733   -7.9111 H   0  0  0  0  0  0  0  0  0  0  0  0
   11.8333   -1.5284   -7.1976 H   0  0  0  0  0  0  0  0  0  0  0  0
    8.3275   -0.8313   -6.5435 H   0  0  0  0  0  0  0  0  0  0  0  0
    9.5292   -2.0495   -7.1254 H   0  0  0  0  0  0  0  0  0  0  0  0
    9.2537   -0.5520   -8.0456 H   0  0  0  0  0  0  0  0  0  0  0  0
  1  2  1  0  0  0  0
  1 21  1  0  0  0  0
  1 22  1  0  0  0  0
  1 23  1  0  0  0  0
  2  3  1  0  0  0  0
  2 24  1  0  0  0  0
  2 25  1  0  0  0  0
  3  4  1  0  0  0  0
  3 26  1  0  0  0  0
  3 27  1  0  0  0  0
  4  5  1  0  0  0  0
  4 28  1  0  0  0  0
  4 29  1  0  0  0  0
  5  6  1  0  0  0  0
  5 30  1  0  0  0  0
  5 31  1  0  0  0  0
  6  7  1  0  0  0  0
  6 32  1  0  0  0  0
  6 33  1  0  0  0  0
  7  8  1  0  0  0  0
  7 34  1  0  0  0  0
  7 35  1  0  0  0  0
  8  9  2  0  0  0  0
  8 10  1  0  0  0  0
 11 16  1  0  0  0  0
 11 12  1  0  0  0  0
 11 10  1  0  0  0  0
 11 36  1  6  0  0  0
 12 13  1  0  0  0  0
 12 37  1  0  0  0  0
 12 38  1  0  0  0  0
 13 14  2  0  0  0  0
 13 15  1  0  0  0  0
 16 17  1  0  0  0  0
 16 39  1  0  0  0  0
 16 40  1  0  0  0  0
 17 18  1  0  0  0  0
 17 19  1  0  0  0  0
 17 20  1  0  0  0  0
 18 41  1  0  0  0  0
 18 42  1  0  0  0  0
 18 43  1  0  0  0  0
 19 44  1  0  0  0  0
 19 45  1  0  0  0  0
 19 46  1  0  0  0  0
 20 47  1  0  0  0  0
 20 48  1  0  0  0  0
 20 49  1  0  0  0  0
M  CHG  2  15  -1  17   1
M  END
$$$$
