CHEBI:16251
 OpenBabel04242414033D

 55 56  0  0  1  0  0  0  0  0999 V2000
    5.9013   -4.5777   -1.8667 C   0  0  0  0  0  0  0  0  0  0  0  0
    5.5100   -4.2449   -3.2350 N   0  0  0  0  0  0  0  0  0  0  0  0
    4.2015   -3.5993   -3.3665 C   0  0  0  0  0  0  0  0  0  0  0  0
    4.3426   -2.0745   -3.3889 C   0  0  0  0  0  0  0  0  0  0  0  0
    2.9820   -1.3552   -3.4841 C   0  0  0  0  0  0  0  0  0  0  0  0
    3.1608    0.1002   -3.4076 N   0  0  0  0  0  0  0  0  0  0  0  0
    2.1470   -1.7349   -4.7216 C   0  0  0  0  0  0  0  0  0  0  0  0
    2.8493   -1.4874   -6.0458 C   0  0  0  0  0  0  0  0  0  0  0  0
    3.7120   -0.6293   -6.1978 O   0  0  0  0  0  0  0  0  0  0  0  0
    2.3884   -2.2784   -7.0752 N   0  0  0  0  0  0  0  0  0  0  0  0
    2.9394   -2.1822   -8.4250 C   0  0  1  0  0  0  0  0  0  0  0  0
    3.8781   -3.3353   -8.5682 C   0  0  0  0  0  0  0  0  0  0  0  0
    3.4790   -4.4714   -9.1530 C   0  0  0  0  0  0  0  0  0  0  0  0
    2.0817   -4.6946   -9.6516 C   0  0  2  0  0  0  0  0  0  0  0  0
    2.0964   -5.3630  -10.9523 N   0  0  0  0  0  0  0  0  0  0  0  0
    2.7005   -4.7892  -12.0582 C   0  0  0  0  0  0  0  0  0  0  0  0
    2.7182   -5.3841  -13.2530 C   0  0  0  0  0  0  0  0  0  0  0  0
    2.0995   -6.7082  -13.3978 C   0  0  0  0  0  0  0  0  0  0  0  0
    2.0832   -7.2893  -14.4753 O   0  0  0  0  0  0  0  0  0  0  0  0
    1.5627   -7.2324  -12.2596 N   0  0  0  0  0  0  0  0  0  0  0  0
    1.5194   -6.6292  -11.0290 C   0  0  0  0  0  0  0  0  0  0  0  0
    0.9969   -7.2152  -10.0834 O   0  0  0  0  0  0  0  0  0  0  0  0
    1.2263   -3.5386   -9.7051 O   0  0  0  0  0  0  0  0  0  0  0  0
    1.8168   -2.2460   -9.4777 C   0  0  2  0  0  0  0  0  0  0  0  0
    2.2215   -1.6154  -10.8064 C   0  0  0  0  0  0  0  0  0  0  0  0
    3.1779   -0.8805  -10.9966 O   0  0  0  0  0  0  0  0  0  0  0  0
    1.3526   -1.9457  -11.7995 O   0  0  0  0  0  0  0  0  0  0  0  0
    6.3156   -4.4862   -4.3150 C   0  0  0  0  0  0  0  0  0  0  0  0
    6.0963   -4.1745   -5.5455 N   0  0  0  0  0  0  0  0  0  0  0  0
    7.4741   -5.1349   -4.0764 N   0  0  0  0  0  0  0  0  0  0  0  0
    5.0417   -4.6128   -1.1886 H   0  0  0  0  0  0  0  0  0  0  0  0
    6.5970   -3.8232   -1.4852 H   0  0  0  0  0  0  0  0  0  0  0  0
    6.3789   -5.5616   -1.8114 H   0  0  0  0  0  0  0  0  0  0  0  0
    3.5416   -3.8912   -2.5400 H   0  0  0  0  0  0  0  0  0  0  0  0
    3.7050   -3.9675   -4.2703 H   0  0  0  0  0  0  0  0  0  0  0  0
    5.0000   -1.7703   -4.2120 H   0  0  0  0  0  0  0  0  0  0  0  0
    4.8523   -1.7572   -2.4688 H   0  0  0  0  0  0  0  0  0  0  0  0
    2.3951   -1.6374   -2.6010 H   0  0  0  0  0  0  0  0  0  0  0  0
    3.5980    0.4194   -4.2826 H   0  0  0  0  0  0  0  0  0  0  0  0
    3.8314    0.3384   -2.6772 H   0  0  0  0  0  0  0  0  0  0  0  0
    1.2171   -1.1515   -4.7354 H   0  0  0  0  0  0  0  0  0  0  0  0
    1.8486   -2.7872   -4.6564 H   0  0  0  0  0  0  0  0  0  0  0  0
    1.7634   -3.0478   -6.8696 H   0  0  0  0  0  0  0  0  0  0  0  0
    3.4983   -1.2454   -8.5212 H   0  0  0  0  0  0  0  0  0  0  0  0
    4.8918   -3.2319   -8.1867 H   0  0  0  0  0  0  0  0  0  0  0  0
    4.1736   -5.3060   -9.2224 H   0  0  0  0  0  0  0  0  0  0  0  0
    1.6042   -5.3518   -8.9171 H   0  0  0  0  0  0  0  0  0  0  0  0
    3.1808   -3.8248  -11.9323 H   0  0  0  0  0  0  0  0  0  0  0  0
    3.1789   -4.9446  -14.1280 H   0  0  0  0  0  0  0  0  0  0  0  0
    1.1489   -8.1491  -12.3298 H   0  0  0  0  0  0  0  0  0  0  0  0
    0.9928   -1.6096   -9.1264 H   0  0  0  0  0  0  0  0  0  0  0  0
    0.6839   -2.5855  -11.4664 H   0  0  0  0  0  0  0  0  0  0  0  0
    5.2180   -3.6684   -5.6276 H   0  0  0  0  0  0  0  0  0  0  0  0
    8.0284   -4.7081   -3.3483 H   0  0  0  0  0  0  0  0  0  0  0  0
    8.0064   -5.1671   -4.9407 H   0  0  0  0  0  0  0  0  0  0  0  0
  1  2  1  0  0  0  0
  1 31  1  0  0  0  0
  1 32  1  0  0  0  0
  1 33  1  0  0  0  0
  2  3  1  0  0  0  0
  2 28  1  0  0  0  0
  3  4  1  0  0  0  0
  3 34  1  0  0  0  0
  3 35  1  0  0  0  0
  4  5  1  0  0  0  0
  4 36  1  0  0  0  0
  4 37  1  0  0  0  0
  5  6  1  0  0  0  0
  5  7  1  0  0  0  0
  5 38  1  0  0  0  0
  6 39  1  0  0  0  0
  6 40  1  0  0  0  0
  7  8  1  0  0  0  0
  7 41  1  0  0  0  0
  7 42  1  0  0  0  0
  8  9  2  0  0  0  0
  8 10  1  0  0  0  0
 10 11  1  0  0  0  0
 10 43  1  0  0  0  0
 11 12  1  0  0  0  0
 11 24  1  0  0  0  0
 11 44  1  6  0  0  0
 12 13  2  0  0  0  0
 12 45  1  0  0  0  0
 13 14  1  0  0  0  0
 13 46  1  0  0  0  0
 14 15  1  0  0  0  0
 14 23  1  0  0  0  0
 14 47  1  1  0  0  0
 15 16  1  0  0  0  0
 15 21  1  0  0  0  0
 16 17  2  0  0  0  0
 16 48  1  0  0  0  0
 17 18  1  0  0  0  0
 17 49  1  0  0  0  0
 18 19  2  0  0  0  0
 18 20  1  0  0  0  0
 20 21  1  0  0  0  0
 20 50  1  0  0  0  0
 21 22  2  0  0  0  0
 23 24  1  0  0  0  0
 24 25  1  0  0  0  0
 24 51  1  1  0  0  0
 25 26  2  0  0  0  0
 25 27  1  0  0  0  0
 27 52  1  0  0  0  0
 28 29  2  0  0  0  0
 28 30  1  0  0  0  0
 29 53  1  0  0  0  0
 30 54  1  0  0  0  0
 30 55  1  0  0  0  0
M  END
$$$$
