CHEBI:18082
 OpenBabel04242423313D

 99104  0  0  1  0  0  0  0  0999 V2000
    5.7159   -3.8808   -6.3016 O   0  0  0  0  0  0  0  0  0  0  0  0
    4.6489   -4.4628   -6.3532 C   0  0  0  0  0  0  0  0  0  0  0  0
    3.7488   -4.6025   -5.3532 O   0  0  0  0  0  0  0  0  0  0  0  0
    4.1045   -4.0534   -4.0705 C   0  0  0  0  0  0  0  0  0  0  0  0
    4.5996   -5.1473   -3.1066 C   0  0  1  0  0  0  0  0  0  0  0  0
    3.6263   -6.1891   -3.0471 O   0  0  0  0  0  0  0  0  0  0  0  0
    3.8485   -7.0378   -1.9176 C   0  0  1  0  0  0  0  0  0  0  0  0
    2.9273   -8.1332   -1.9753 O   0  0  0  0  0  0  0  0  0  0  0  0
    1.6662   -7.8272   -1.5994 C   0  0  0  0  0  0  0  0  0  0  0  0
    1.2417   -6.7414   -1.2417 O   0  0  0  0  0  0  0  0  0  0  0  0
    0.8124   -9.0217   -1.7731 C   0  0  0  0  0  0  0  0  0  0  0  0
   -0.5160   -8.8280   -2.1768 C   0  0  0  0  0  0  0  0  0  0  0  0
   -1.3260   -9.9386   -2.3744 C   0  0  0  0  0  0  0  0  0  0  0  0
   -2.6240   -9.8157   -2.7907 O   0  0  0  0  0  0  0  0  0  0  0  0
   -0.8321  -11.2255   -2.1574 C   0  0  0  0  0  0  0  0  0  0  0  0
   -1.6574  -12.2961   -2.3680 O   0  0  0  0  0  0  0  0  0  0  0  0
    0.4814  -11.4132   -1.7328 C   0  0  0  0  0  0  0  0  0  0  0  0
    0.9427  -12.6788   -1.5094 O   0  0  0  0  0  0  0  0  0  0  0  0
    1.3131  -10.3128   -1.5393 C   0  0  0  0  0  0  0  0  0  0  0  0
    5.2844   -7.6215   -1.8964 C   0  0  2  0  0  0  0  0  0  0  0  0
    5.9920   -7.1942   -0.7068 O   0  0  0  0  0  0  0  0  0  0  0  0
    5.6656   -7.8912    0.4128 C   0  0  0  0  0  0  0  0  0  0  0  0
    4.7536   -8.6983    0.5031 O   0  0  0  0  0  0  0  0  0  0  0  0
    6.5924   -7.5839    1.5295 C   0  0  0  0  0  0  0  0  0  0  0  0
    6.5405   -8.4102    2.6686 C   0  0  0  0  0  0  0  0  0  0  0  0
    7.4014   -8.1645    3.7320 C   0  0  0  0  0  0  0  0  0  0  0  0
    7.4034   -8.9375    4.8588 O   0  0  0  0  0  0  0  0  0  0  0  0
    8.2996   -7.1062    3.6708 C   0  0  0  0  0  0  0  0  0  0  0  0
    9.1508   -6.8546    4.7117 O   0  0  0  0  0  0  0  0  0  0  0  0
    8.3460   -6.2894    2.5482 C   0  0  0  0  0  0  0  0  0  0  0  0
    9.2277   -5.2498    2.4940 O   0  0  0  0  0  0  0  0  0  0  0  0
    7.5016   -6.5178    1.4701 C   0  0  0  0  0  0  0  0  0  0  0  0
    6.1132   -7.2090   -3.1234 C   0  0  1  0  0  0  0  0  0  0  0  0
    5.6638   -7.9797   -4.2700 O   0  0  0  0  0  0  0  0  0  0  0  0
    6.2065   -9.2165   -4.3929 C   0  0  0  0  0  0  0  0  0  0  0  0
    7.0134   -9.7194   -3.6302 O   0  0  0  0  0  0  0  0  0  0  0  0
    5.6725   -9.8921   -5.5996 C   0  0  0  0  0  0  0  0  0  0  0  0
    4.4443   -9.5164   -6.1748 C   0  0  0  0  0  0  0  0  0  0  0  0
    3.9736  -10.2166   -7.2807 C   0  0  0  0  0  0  0  0  0  0  0  0
    2.7809   -9.9185   -7.8762 O   0  0  0  0  0  0  0  0  0  0  0  0
    4.7114  -11.2682   -7.8120 C   0  0  0  0  0  0  0  0  0  0  0  0
    4.2568  -11.9551   -8.9044 O   0  0  0  0  0  0  0  0  0  0  0  0
    5.9246  -11.6321   -7.2444 C   0  0  0  0  0  0  0  0  0  0  0  0
    6.6457  -12.6607   -7.7763 O   0  0  0  0  0  0  0  0  0  0  0  0
    6.4131  -10.9565   -6.1359 C   0  0  0  0  0  0  0  0  0  0  0  0
    5.9698   -5.7208   -3.5019 C   0  0  2  0  0  0  0  0  0  0  0  0
    6.9573   -4.8789   -2.8681 O   0  0  0  0  0  0  0  0  0  0  0  0
    8.1888   -4.8914   -3.4407 C   0  0  0  0  0  0  0  0  0  0  0  0
    8.5618   -5.6516   -4.3162 O   0  0  0  0  0  0  0  0  0  0  0  0
    9.0355   -3.8457   -2.8180 C   0  0  0  0  0  0  0  0  0  0  0  0
    8.4692   -2.6827   -2.2619 C   0  0  0  0  0  0  0  0  0  0  0  0
    9.3037   -1.7236   -1.6981 C   0  0  0  0  0  0  0  0  0  0  0  0
    8.8189   -0.5698   -1.1484 O   0  0  0  0  0  0  0  0  0  0  0  0
   10.6804   -1.9164   -1.6842 C   0  0  0  0  0  0  0  0  0  0  0  0
   11.5075   -0.9818   -1.1231 O   0  0  0  0  0  0  0  0  0  0  0  0
   11.2355   -3.0596   -2.2453 C   0  0  0  0  0  0  0  0  0  0  0  0
   12.5878   -3.2387   -2.2313 O   0  0  0  0  0  0  0  0  0  0  0  0
   10.4253   -4.0274   -2.8226 C   0  0  0  0  0  0  0  0  0  0  0  0
    4.1886   -5.2806   -7.4935 C   0  0  0  0  0  0  0  0  0  0  0  0
    5.1228   -6.0915   -8.1546 C   0  0  0  0  0  0  0  0  0  0  0  0
    4.6951   -6.9092   -9.1975 C   0  0  0  0  0  0  0  0  0  0  0  0
    5.5709   -7.7360   -9.8387 O   0  0  0  0  0  0  0  0  0  0  0  0
    3.3565   -6.8982   -9.5859 C   0  0  0  0  0  0  0  0  0  0  0  0
    2.9187   -7.7001  -10.6039 O   0  0  0  0  0  0  0  0  0  0  0  0
    2.4383   -6.0761   -8.9325 C   0  0  0  0  0  0  0  0  0  0  0  0
    1.1378   -6.1125   -9.3544 O   0  0  0  0  0  0  0  0  0  0  0  0
    2.8406   -5.2654   -7.8804 C   0  0  0  0  0  0  0  0  0  0  0  0
    3.1800   -3.6212   -3.6715 H   0  0  0  0  0  0  0  0  0  0  0  0
    4.8318   -3.2380   -4.1579 H   0  0  0  0  0  0  0  0  0  0  0  0
    4.6691   -4.6716   -2.1178 H   0  0  0  0  0  0  0  0  0  0  0  0
    3.6692   -6.4605   -1.0002 H   0  0  0  0  0  0  0  0  0  0  0  0
   -0.8886   -7.8211   -2.3418 H   0  0  0  0  0  0  0  0  0  0  0  0
   -2.8377   -8.8696   -2.8679 H   0  0  0  0  0  0  0  0  0  0  0  0
   -2.5030  -11.9102   -2.6659 H   0  0  0  0  0  0  0  0  0  0  0  0
    1.8697  -12.6451   -1.2263 H   0  0  0  0  0  0  0  0  0  0  0  0
    2.3376  -10.4465   -1.2027 H   0  0  0  0  0  0  0  0  0  0  0  0
    5.2304   -8.7183   -1.8766 H   0  0  0  0  0  0  0  0  0  0  0  0
    5.8350   -9.2366    2.7044 H   0  0  0  0  0  0  0  0  0  0  0  0
    6.7469   -9.6490    4.7503 H   0  0  0  0  0  0  0  0  0  0  0  0
    8.9455   -7.5522    5.3684 H   0  0  0  0  0  0  0  0  0  0  0  0
    9.7272   -5.3013    3.3349 H   0  0  0  0  0  0  0  0  0  0  0  0
    7.5652   -5.8679    0.6029 H   0  0  0  0  0  0  0  0  0  0  0  0
    7.1730   -7.4198   -2.9325 H   0  0  0  0  0  0  0  0  0  0  0  0
    3.8585   -8.7091   -5.7462 H   0  0  0  0  0  0  0  0  0  0  0  0
    2.5043   -9.0303   -7.5917 H   0  0  0  0  0  0  0  0  0  0  0  0
    3.4310  -11.4892   -9.1536 H   0  0  0  0  0  0  0  0  0  0  0  0
    6.1096  -12.9713   -8.5348 H   0  0  0  0  0  0  0  0  0  0  0  0
    7.3604  -11.2577   -5.6950 H   0  0  0  0  0  0  0  0  0  0  0  0
    6.1011   -5.6450   -4.5840 H   0  0  0  0  0  0  0  0  0  0  0  0
    7.3951   -2.5318   -2.2862 H   0  0  0  0  0  0  0  0  0  0  0  0
    7.8513   -0.5567   -1.2490 H   0  0  0  0  0  0  0  0  0  0  0  0
   10.9010   -0.2862   -0.7952 H   0  0  0  0  0  0  0  0  0  0  0  0
   12.9399   -2.4484   -1.7737 H   0  0  0  0  0  0  0  0  0  0  0  0
   10.8722   -4.9144   -3.2649 H   0  0  0  0  0  0  0  0  0  0  0  0
    6.1627   -6.0876   -7.8367 H   0  0  0  0  0  0  0  0  0  0  0  0
    6.4526   -7.6646   -9.4392 H   0  0  0  0  0  0  0  0  0  0  0  0
    1.9739   -7.4843  -10.7192 H   0  0  0  0  0  0  0  0  0  0  0  0
    0.6356   -5.4200   -8.8899 H   0  0  0  0  0  0  0  0  0  0  0  0
    2.1319   -4.6303   -7.3579 H   0  0  0  0  0  0  0  0  0  0  0  0
  1  2  2  0  0  0  0
  2  3  1  0  0  0  0
  2 59  1  0  0  0  0
  3  4  1  0  0  0  0
  4  5  1  0  0  0  0
  4 68  1  0  0  0  0
  4 69  1  0  0  0  0
  5  6  1  0  0  0  0
  5 46  1  0  0  0  0
  5 70  1  1  0  0  0
  6  7  1  0  0  0  0
  7 20  1  0  0  0  0
  7  8  1  0  0  0  0
  7 71  1  1  0  0  0
  8  9  1  0  0  0  0
  9 10  2  0  0  0  0
  9 11  1  0  0  0  0
 11 12  1  0  0  0  0
 11 19  2  0  0  0  0
 12 13  2  0  0  0  0
 12 72  1  0  0  0  0
 13 14  1  0  0  0  0
 13 15  1  0  0  0  0
 14 73  1  0  0  0  0
 15 16  1  0  0  0  0
 15 17  2  0  0  0  0
 16 74  1  0  0  0  0
 17 18  1  0  0  0  0
 17 19  1  0  0  0  0
 18 75  1  0  0  0  0
 19 76  1  0  0  0  0
 20 21  1  0  0  0  0
 20 33  1  0  0  0  0
 20 77  1  1  0  0  0
 21 22  1  0  0  0  0
 22 23  2  0  0  0  0
 22 24  1  0  0  0  0
 24 25  1  0  0  0  0
 24 32  2  0  0  0  0
 25 26  2  0  0  0  0
 25 78  1  0  0  0  0
 26 27  1  0  0  0  0
 26 28  1  0  0  0  0
 27 79  1  0  0  0  0
 28 29  1  0  0  0  0
 28 30  2  0  0  0  0
 29 80  1  0  0  0  0
 30 31  1  0  0  0  0
 30 32  1  0  0  0  0
 31 81  1  0  0  0  0
 32 82  1  0  0  0  0
 33 34  1  0  0  0  0
 33 46  1  0  0  0  0
 33 83  1  1  0  0  0
 34 35  1  0  0  0  0
 35 36  2  0  0  0  0
 35 37  1  0  0  0  0
 37 38  1  0  0  0  0
 37 45  2  0  0  0  0
 38 39  2  0  0  0  0
 38 84  1  0  0  0  0
 39 40  1  0  0  0  0
 39 41  1  0  0  0  0
 40 85  1  0  0  0  0
 41 42  1  0  0  0  0
 41 43  2  0  0  0  0
 42 86  1  0  0  0  0
 43 44  1  0  0  0  0
 43 45  1  0  0  0  0
 44 87  1  0  0  0  0
 45 88  1  0  0  0  0
 46 47  1  0  0  0  0
 46 89  1  6  0  0  0
 47 48  1  0  0  0  0
 48 49  2  0  0  0  0
 48 50  1  0  0  0  0
 50 51  1  0  0  0  0
 50 58  2  0  0  0  0
 51 52  2  0  0  0  0
 51 90  1  0  0  0  0
 52 53  1  0  0  0  0
 52 54  1  0  0  0  0
 53 91  1  0  0  0  0
 54 55  1  0  0  0  0
 54 56  2  0  0  0  0
 55 92  1  0  0  0  0
 56 57  1  0  0  0  0
 56 58  1  0  0  0  0
 57 93  1  0  0  0  0
 58 94  1  0  0  0  0
 59 60  1  0  0  0  0
 59 67  2  0  0  0  0
 60 61  2  0  0  0  0
 60 95  1  0  0  0  0
 61 62  1  0  0  0  0
 61 63  1  0  0  0  0
 62 96  1  0  0  0  0
 63 64  1  0  0  0  0
 63 65  2  0  0  0  0
 64 97  1  0  0  0  0
 65 66  1  0  0  0  0
 65 67  1  0  0  0  0
 66 98  1  0  0  0  0
 67 99  1  0  0  0  0
M  END
$$$$
