CHEBI:17077
 OpenBabel04242415493D

 25 24  0  0  1  0  0  0  0  0999 V2000
    9.0882   -3.2464   -1.2443 O   0  0  0  0  0  0  0  0  0  0  0  0
    7.8697   -3.1241   -1.2293 C   0  0  0  0  0  0  0  0  0  0  0  0
    7.0670   -4.0648   -0.6707 O   0  0  0  0  0  0  0  0  0  0  0  0
    7.1248   -1.9101   -1.8206 C   0  0  1  0  0  0  0  0  0  0  0  0
    8.0287   -0.8548   -2.1777 O   0  0  0  0  0  0  0  0  0  0  0  0
    6.4250   -2.3660   -3.1167 C   0  0  0  0  0  0  0  0  0  0  0  0
    7.4056   -2.5836   -4.1377 O   0  0  0  0  0  0  0  0  0  0  0  0
    6.1078   -1.3716   -0.7994 C   0  0  2  0  0  0  0  0  0  0  0  0
    5.0926   -2.3760   -0.5448 O   0  0  0  0  0  0  0  0  0  0  0  0
    6.6852   -0.9436    0.5623 C   0  0  2  0  0  0  0  0  0  0  0  0
    5.5530   -0.5466    1.3730 O   0  0  0  0  0  0  0  0  0  0  0  0
    7.6830    0.2143    0.5185 C   0  0  0  0  0  0  0  0  0  0  0  0
    7.8996    0.6525    1.8661 O   0  0  0  0  0  0  0  0  0  0  0  0
    6.1178   -3.7885   -0.6321 H   0  0  0  0  0  0  0  0  0  0  0  0
    8.5900   -1.2493   -2.8814 H   0  0  0  0  0  0  0  0  0  0  0  0
    5.7567   -1.5808   -3.4862 H   0  0  0  0  0  0  0  0  0  0  0  0
    5.8516   -3.2889   -2.9837 H   0  0  0  0  0  0  0  0  0  0  0  0
    6.9333   -2.9041   -4.9274 H   0  0  0  0  0  0  0  0  0  0  0  0
    5.5786   -0.5125   -1.2326 H   0  0  0  0  0  0  0  0  0  0  0  0
    4.5702   -1.9881    0.1977 H   0  0  0  0  0  0  0  0  0  0  0  0
    7.1225   -1.7971    1.0922 H   0  0  0  0  0  0  0  0  0  0  0  0
    5.9608   -0.0571    2.1212 H   0  0  0  0  0  0  0  0  0  0  0  0
    7.2812    1.0641   -0.0415 H   0  0  0  0  0  0  0  0  0  0  0  0
    8.6440   -0.0933    0.0994 H   0  0  0  0  0  0  0  0  0  0  0  0
    8.6183    1.3099    1.8290 H   0  0  0  0  0  0  0  0  0  0  0  0
  1  2  2  0  0  0  0
  2  3  1  0  0  0  0
  3 14  1  0  0  0  0
  4  2  1  1  0  0  0
  4  5  1  0  0  0  0
  4  6  1  0  0  0  0
  5 15  1  0  0  0  0
  6  7  1  0  0  0  0
  6 16  1  0  0  0  0
  6 17  1  0  0  0  0
  7 18  1  0  0  0  0
  8  9  1  0  0  0  0
  8  4  1  0  0  0  0
  8 19  1  1  0  0  0
  9 20  1  0  0  0  0
 10 12  1  0  0  0  0
 10 11  1  0  0  0  0
 10  8  1  0  0  0  0
 10 21  1  1  0  0  0
 11 22  1  0  0  0  0
 12 13  1  0  0  0  0
 12 23  1  0  0  0  0
 12 24  1  0  0  0  0
 13 25  1  0  0  0  0
M  END
$$$$
