CHEBI:15832
 OpenBabel04242413203D

 10  9  0  0  0  0  0  0  0  0999 V2000
    1.3226    0.0121   -0.2979 N   0  0  0  0  0  0  0  0  0  0  0  0
    2.6330    0.0644    0.0001 C   0  0  0  0  0  0  0  0  0  0  0  0
    3.4440   -0.5739   -0.6709 O   0  0  0  0  0  0  0  0  0  0  0  0
    3.0298    0.8528    1.0148 N   0  0  0  0  0  0  0  0  0  0  0  0
    2.2600    1.4616    1.8878 C   0  0  0  0  0  0  0  0  0  0  0  0
    2.9226    2.1328    2.7235 O   0  0  0  0  0  0  0  0  0  0  0  0
    1.0056    1.3074    1.8303 O   0  5  0  0  0  0  0  0  0  0  0  0
    0.9954   -0.7144   -0.9079 H   0  0  0  0  0  0  0  0  0  0  0  0
    0.7125    0.3702    0.4460 H   0  0  0  0  0  0  0  0  0  0  0  0
    4.0215    0.9302    1.1342 H   0  0  0  0  0  0  0  0  0  0  0  0
  1  2  1  0  0  0  0
  1  8  1  0  0  0  0
  1  9  1  0  0  0  0
  2  3  2  0  0  0  0
  2  4  1  0  0  0  0
  4  5  1  0  0  0  0
  4 10  1  0  0  0  0
  5  6  2  0  0  0  0
  5  7  1  0  0  0  0
M  CHG  1   7  -1
M  END
$$$$
