CHEBI:17966
 OpenBabel04242423203D

 19 19  0  0  0  0  0  0  0  0999 V2000
    1.1755    0.0910    0.3482 C   0  5  0  0  0  0  0  0  0  0  0  0
    2.3403    0.0566    0.2213 N   0  3  0  0  0  0  0  0  0  0  0  0
    3.7732    0.0211    0.0904 C   0  0  0  0  0  0  0  0  0  0  0  0
    4.2392   -1.3900   -0.2796 C   0  0  0  0  0  0  0  0  0  0  0  0
    3.8853   -1.7678   -1.7173 C   0  0  0  0  0  0  0  0  0  0  0  0
    4.3875   -0.7278   -2.7136 C   0  0  0  0  0  0  0  0  0  0  0  0
    3.8864    0.6708   -2.3684 C   0  0  0  0  0  0  0  0  0  0  0  0
    4.2402    1.0596   -0.9336 C   0  0  0  0  0  0  0  0  0  0  0  0
    4.1881    0.2830    1.0720 H   0  0  0  0  0  0  0  0  0  0  0  0
    3.8018   -2.1250    0.4064 H   0  0  0  0  0  0  0  0  0  0  0  0
    5.3282   -1.4481   -0.1574 H   0  0  0  0  0  0  0  0  0  0  0  0
    2.7982   -1.8732   -1.8156 H   0  0  0  0  0  0  0  0  0  0  0  0
    4.3200   -2.7451   -1.9563 H   0  0  0  0  0  0  0  0  0  0  0  0
    4.0605   -0.9975   -3.7242 H   0  0  0  0  0  0  0  0  0  0  0  0
    5.4844   -0.7305   -2.7217 H   0  0  0  0  0  0  0  0  0  0  0  0
    2.7994    0.7142   -2.5065 H   0  0  0  0  0  0  0  0  0  0  0  0
    4.3220    1.3984   -3.0626 H   0  0  0  0  0  0  0  0  0  0  0  0
    3.8035    2.0391   -0.7054 H   0  0  0  0  0  0  0  0  0  0  0  0
    5.3293    1.1701   -0.8563 H   0  0  0  0  0  0  0  0  0  0  0  0
  1  2  3  0  0  0  0
  2  3  1  0  0  0  0
  3  4  1  0  0  0  0
  3  8  1  0  0  0  0
  3  9  1  0  0  0  0
  4  5  1  0  0  0  0
  4 10  1  0  0  0  0
  4 11  1  0  0  0  0
  5  6  1  0  0  0  0
  5 12  1  0  0  0  0
  5 13  1  0  0  0  0
  6  7  1  0  0  0  0
  6 14  1  0  0  0  0
  6 15  1  0  0  0  0
  7  8  1  0  0  0  0
  7 16  1  0  0  0  0
  7 17  1  0  0  0  0
  8 18  1  0  0  0  0
  8 19  1  0  0  0  0
M  CHG  2   1  -1   2   1
M  END
$$$$
