CHEBI:6631
 OpenBabel04242411073D

 35 37  0  0  1  0  0  0  0  0999 V2000
    2.7481    0.1061   -0.4979 O   0  0  0  0  0  0  0  0  0  0  0  0
    1.5710    0.2320   -0.1805 C   0  0  0  0  0  0  0  0  0  0  0  0
    0.9027    1.4262   -0.3671 N   0  0  0  0  0  0  0  0  0  0  0  0
   -0.3029    1.7389    0.4177 C   0  0  1  0  0  0  0  0  0  0  0  0
   -0.9904    3.0268   -0.0586 C   0  0  0  0  0  0  0  0  0  0  0  0
   -0.1169    4.2531    0.0861 C   0  0  0  0  0  0  0  0  0  0  0  0
    0.4702    4.8454   -1.0421 C   0  0  0  0  0  0  0  0  0  0  0  0
    1.2937    5.9655   -0.9080 C   0  0  0  0  0  0  0  0  0  0  0  0
    1.5284    6.4943    0.3565 C   0  0  0  0  0  0  0  0  0  0  0  0
    2.3254    7.5859    0.5339 O   0  0  0  0  0  0  0  0  0  0  0  0
    0.9524    5.9237    1.4846 C   0  0  0  0  0  0  0  0  0  0  0  0
    0.1292    4.8049    1.3514 C   0  0  0  0  0  0  0  0  0  0  0  0
   -1.2908    0.5474    0.3304 C   0  0  0  0  0  0  0  0  0  0  0  0
   -2.5116    0.6662    0.3634 O   0  0  0  0  0  0  0  0  0  0  0  0
   -0.6565   -0.6783    0.3227 N   0  0  0  0  0  0  0  0  0  0  0  0
   -1.3204   -1.9564    0.1910 C   0  0  0  0  0  0  0  0  0  0  0  0
   -0.2434   -2.9738    0.5521 C   0  0  0  0  0  0  0  0  0  0  0  0
    1.0635   -2.2591    0.2054 C   0  0  0  0  0  0  0  0  0  0  0  0
    0.7686   -0.8171    0.5948 C   0  0  1  0  0  0  0  0  0  0  0  0
    1.5018    2.1837   -0.6754 H   0  0  0  0  0  0  0  0  0  0  0  0
    0.0061    1.8287    1.4670 H   0  0  0  0  0  0  0  0  0  0  0  0
   -1.3021    2.9174   -1.1060 H   0  0  0  0  0  0  0  0  0  0  0  0
   -1.9150    3.1987    0.5079 H   0  0  0  0  0  0  0  0  0  0  0  0
    0.2887    4.4386   -2.0352 H   0  0  0  0  0  0  0  0  0  0  0  0
    1.7373    6.4078   -1.7944 H   0  0  0  0  0  0  0  0  0  0  0  0
    2.6452    7.8808   -0.3344 H   0  0  0  0  0  0  0  0  0  0  0  0
    1.1418    6.3512    2.4653 H   0  0  0  0  0  0  0  0  0  0  0  0
   -0.3210    4.3728    2.2423 H   0  0  0  0  0  0  0  0  0  0  0  0
   -1.6418   -2.0612   -0.8505 H   0  0  0  0  0  0  0  0  0  0  0  0
   -2.1973   -2.0113    0.8426 H   0  0  0  0  0  0  0  0  0  0  0  0
   -0.3653   -3.9220    0.0215 H   0  0  0  0  0  0  0  0  0  0  0  0
   -0.2732   -3.1795    1.6290 H   0  0  0  0  0  0  0  0  0  0  0  0
    1.2639   -2.3451   -0.8698 H   0  0  0  0  0  0  0  0  0  0  0  0
    1.9227   -2.6711    0.7428 H   0  0  0  0  0  0  0  0  0  0  0  0
    0.9234   -0.6543    1.6684 H   0  0  0  0  0  0  0  0  0  0  0  0
  1  2  2  0  0  0  0
  2  3  1  0  0  0  0
  2 19  1  0  0  0  0
  3  4  1  0  0  0  0
  3 20  1  0  0  0  0
  4 13  1  0  0  0  0
  4  5  1  0  0  0  0
  4 21  1  1  0  0  0
  5  6  1  0  0  0  0
  5 22  1  0  0  0  0
  5 23  1  0  0  0  0
  6  7  1  0  0  0  0
  6 12  2  0  0  0  0
  7  8  2  0  0  0  0
  7 24  1  0  0  0  0
  8  9  1  0  0  0  0
  8 25  1  0  0  0  0
  9 10  1  0  0  0  0
  9 11  2  0  0  0  0
 10 26  1  0  0  0  0
 11 12  1  0  0  0  0
 11 27  1  0  0  0  0
 12 28  1  0  0  0  0
 13 14  2  0  0  0  0
 13 15  1  0  0  0  0
 15 16  1  0  0  0  0
 15 19  1  0  0  0  0
 16 17  1  0  0  0  0
 16 29  1  0  0  0  0
 16 30  1  0  0  0  0
 17 18  1  0  0  0  0
 17 31  1  0  0  0  0
 17 32  1  0  0  0  0
 18 19  1  0  0  0  0
 18 33  1  0  0  0  0
 18 34  1  0  0  0  0
 19 35  1  1  0  0  0
M  END
$$$$
