CHEBI:17746
 OpenBabel04242417133D

 20 19  0  0  1  0  0  0  0  0999 V2000
    2.8674   -0.2930    3.8783 O   0  0  0  0  0  0  0  0  0  0  0  0
    4.0178   -0.6529    4.2614 C   0  0  0  0  0  0  0  0  0  0  0  0
    4.4032   -1.1883    5.3437 O   0  5  0  0  0  0  0  0  0  0  0  0
    5.1706   -0.3987    3.2497 C   0  0  2  0  0  0  0  0  0  0  0  0
    6.4401   -0.5993    3.9099 O   0  0  0  0  0  0  0  0  0  0  0  0
    5.0195    1.0363    2.7410 C   0  0  1  0  0  0  0  0  0  0  0  0
    3.8505    1.1504    1.8911 O   0  0  0  0  0  0  0  0  0  0  0  0
    6.2418    1.5244    1.9360 C   0  0  2  0  0  0  0  0  0  0  0  0
    6.0113    2.8981    1.5573 O   0  0  0  0  0  0  0  0  0  0  0  0
    6.4921    0.7197    0.6487 C   0  0  0  0  0  0  0  0  0  0  0  0
    5.3827    0.7866   -0.2553 O   0  0  0  0  0  0  0  0  0  0  0  0
    5.0774   -1.1356    2.4450 H   0  0  0  0  0  0  0  0  0  0  0  0
    6.1600   -0.9917    4.7762 H   0  0  0  0  0  0  0  0  0  0  0  0
    4.8653    1.7323    3.5757 H   0  0  0  0  0  0  0  0  0  0  0  0
    3.1233    0.7709    2.4559 H   0  0  0  0  0  0  0  0  0  0  0  0
    7.1426    1.5110    2.5581 H   0  0  0  0  0  0  0  0  0  0  0  0
    5.1437    2.8730    1.1057 H   0  0  0  0  0  0  0  0  0  0  0  0
    6.6980   -0.3325    0.8640 H   0  0  0  0  0  0  0  0  0  0  0  0
    7.3530    1.1333    0.1137 H   0  0  0  0  0  0  0  0  0  0  0  0
    4.5748    0.7597    0.3052 H   0  0  0  0  0  0  0  0  0  0  0  0
  1  2  2  0  0  0  0
  2  3  1  0  0  0  0
  4  6  1  0  0  0  0
  4  5  1  0  0  0  0
  4  2  1  0  0  0  0
  4 12  1  6  0  0  0
  5 13  1  0  0  0  0
  6  7  1  0  0  0  0
  6 14  1  6  0  0  0
  7 15  1  0  0  0  0
  8 10  1  0  0  0  0
  8  9  1  0  0  0  0
  8  6  1  0  0  0  0
  8 16  1  1  0  0  0
  9 17  1  0  0  0  0
 10 11  1  0  0  0  0
 10 18  1  0  0  0  0
 10 19  1  0  0  0  0
 11 20  1  0  0  0  0
M  CHG  1   3  -1
M  END
$$$$
