CHEBI:9368
 OpenBabel04242411393D

 33 35  0  0  0  0  0  0  0  0999 V2000
    2.8971    0.9997   -0.2083 C   0  0  0  0  0  0  0  0  0  0  0  0
    2.4598   -0.3208    0.0920 O   0  0  0  0  0  0  0  0  0  0  0  0
    3.2415   -1.0550    0.9400 C   0  0  0  0  0  0  0  0  0  0  0  0
    2.7680   -2.3427    1.2020 C   0  0  0  0  0  0  0  0  0  0  0  0
    3.4718   -3.1995    2.0531 C   0  0  0  0  0  0  0  0  0  0  0  0
    2.9750   -4.4502    2.2835 O   0  0  0  0  0  0  0  0  0  0  0  0
    4.6618   -2.7749    2.6538 C   0  0  0  0  0  0  0  0  0  0  0  0
    5.4627   -3.6189    3.5639 C   0  0  0  0  0  0  0  0  0  0  0  0
    5.1651   -4.7668    3.8764 O   0  0  0  0  0  0  0  0  0  0  0  0
    6.6917   -3.0368    4.1251 C   0  0  0  0  0  0  0  0  0  0  0  0
    7.5082   -3.7642    4.9977 C   0  0  0  0  0  0  0  0  0  0  0  0
    7.2309   -5.0468    5.3864 O   0  0  0  0  0  0  0  0  0  0  0  0
    8.6645   -3.1932    5.5165 C   0  0  0  0  0  0  0  0  0  0  0  0
    9.0151   -1.8867    5.1674 C   0  0  0  0  0  0  0  0  0  0  0  0
    8.2066   -1.1479    4.2968 C   0  0  0  0  0  0  0  0  0  0  0  0
    8.4633    0.1381    3.8940 O   0  0  0  0  0  0  0  0  0  0  0  0
    9.6133    0.7768    4.4333 C   0  0  0  0  0  0  0  0  0  0  0  0
    7.0381   -1.7339    3.7739 C   0  0  0  0  0  0  0  0  0  0  0  0
    6.2834   -0.9621    2.9220 O   0  0  0  0  0  0  0  0  0  0  0  0
    5.1321   -1.4886    2.3910 C   0  0  0  0  0  0  0  0  0  0  0  0
    4.4261   -0.6305    1.5373 C   0  0  0  0  0  0  0  0  0  0  0  0
    2.1682    1.4459   -0.8915 H   0  0  0  0  0  0  0  0  0  0  0  0
    3.8669    0.9877   -0.7166 H   0  0  0  0  0  0  0  0  0  0  0  0
    2.9306    1.6188    0.6943 H   0  0  0  0  0  0  0  0  0  0  0  0
    1.8425   -2.6634    0.7308 H   0  0  0  0  0  0  0  0  0  0  0  0
    2.1485   -4.5800    1.7917 H   0  0  0  0  0  0  0  0  0  0  0  0
    6.3913   -5.3161    4.9443 H   0  0  0  0  0  0  0  0  0  0  0  0
    9.2932   -3.7668    6.1933 H   0  0  0  0  0  0  0  0  0  0  0  0
    9.9261   -1.4784    5.5928 H   0  0  0  0  0  0  0  0  0  0  0  0
    9.6544    1.7910    4.0245 H   0  0  0  0  0  0  0  0  0  0  0  0
   10.5297    0.2593    4.1316 H   0  0  0  0  0  0  0  0  0  0  0  0
    9.5444    0.8601    5.5229 H   0  0  0  0  0  0  0  0  0  0  0  0
    4.8311    0.3614    1.3623 H   0  0  0  0  0  0  0  0  0  0  0  0
  1  2  1  0  0  0  0
  1 22  1  0  0  0  0
  1 23  1  0  0  0  0
  1 24  1  0  0  0  0
  2  3  1  0  0  0  0
  3  4  1  0  0  0  0
  3 21  2  0  0  0  0
  4  5  2  0  0  0  0
  4 25  1  0  0  0  0
  5  6  1  0  0  0  0
  5  7  1  0  0  0  0
  6 26  1  0  0  0  0
  7  8  1  0  0  0  0
  7 20  2  0  0  0  0
  8  9  2  0  0  0  0
  8 10  1  0  0  0  0
 10 11  1  0  0  0  0
 10 18  2  0  0  0  0
 11 12  1  0  0  0  0
 11 13  2  0  0  0  0
 12 27  1  0  0  0  0
 13 14  1  0  0  0  0
 13 28  1  0  0  0  0
 14 15  2  0  0  0  0
 14 29  1  0  0  0  0
 15 16  1  0  0  0  0
 15 18  1  0  0  0  0
 16 17  1  0  0  0  0
 17 30  1  0  0  0  0
 17 31  1  0  0  0  0
 17 32  1  0  0  0  0
 18 19  1  0  0  0  0
 19 20  1  0  0  0  0
 20 21  1  0  0  0  0
 21 33  1  0  0  0  0
M  END
$$$$
