CHEBI:27434
 OpenBabel04252409583D

 17 17  0  0  0  0  0  0  0  0999 V2000
    2.5326   -0.0951   -0.0288 C   0  0  0  0  0  0  0  0  0  0  0  0
    1.0318   -0.0068   -0.0132 C   0  0  0  0  0  0  0  0  0  0  0  0
    0.2851   -1.1978   -0.0151 C   0  0  0  0  0  0  0  0  0  0  0  0
   -1.1106   -1.1723   -0.0008 C   0  0  0  0  0  0  0  0  0  0  0  0
   -1.7855    0.0441    0.0156 C   0  0  0  0  0  0  0  0  0  0  0  0
   -1.0642    1.2376    0.0174 C   0  0  0  0  0  0  0  0  0  0  0  0
    0.3398    1.2191    0.0025 C   0  0  0  0  0  0  0  0  0  0  0  0
    1.0175    2.5424    0.0042 C   0  0  0  0  0  0  0  0  0  0  0  0
    2.2309    2.6960   -0.0163 O   0  0  0  0  0  0  0  0  0  0  0  0
    2.8723   -1.1367   -0.0308 H   0  0  0  0  0  0  0  0  0  0  0  0
    2.9540    0.3778    0.8638 H   0  0  0  0  0  0  0  0  0  0  0  0
    2.9348    0.3763   -0.9309 H   0  0  0  0  0  0  0  0  0  0  0  0
    0.7908   -2.1619   -0.0279 H   0  0  0  0  0  0  0  0  0  0  0  0
   -1.6693   -2.1052   -0.0026 H   0  0  0  0  0  0  0  0  0  0  0  0
   -2.8725    0.0625    0.0268 H   0  0  0  0  0  0  0  0  0  0  0  0
   -1.6105    2.1778    0.0298 H   0  0  0  0  0  0  0  0  0  0  0  0
    0.3494    3.4203    0.0251 H   0  0  0  0  0  0  0  0  0  0  0  0
  1  2  1  0  0  0  0
  1 10  1  0  0  0  0
  1 11  1  0  0  0  0
  1 12  1  0  0  0  0
  2  3  1  0  0  0  0
  2  7  2  0  0  0  0
  3  4  2  0  0  0  0
  3 13  1  0  0  0  0
  4  5  1  0  0  0  0
  4 14  1  0  0  0  0
  5  6  2  0  0  0  0
  5 15  1  0  0  0  0
  6  7  1  0  0  0  0
  6 16  1  0  0  0  0
  7  8  1  0  0  0  0
  8  9  2  0  0  0  0
  8 17  1  0  0  0  0
M  END
$$$$
