CHEBI:17436
 OpenBabel04242416343D

 27 26  0  0  1  0  0  0  0  0999 V2000
    2.3073   -1.2479   -1.1642 C   0  0  0  0  0  0  0  0  0  0  0  0
    2.5821   -0.8633    0.2995 C   0  0  1  0  0  0  0  0  0  0  0  0
    3.9914   -1.0526    0.5069 O   0  0  0  0  0  0  0  0  0  0  0  0
    2.1683    0.6186    0.4961 C   0  0  0  0  0  0  0  0  0  0  0  0
    2.5205    1.2786    1.8275 C   0  0  0  0  0  0  0  0  0  0  0  0
    3.9160    1.1915    2.0387 O   0  0  0  0  0  0  0  0  0  0  0  0
    4.5091    1.5795    3.4762 P   0  0  0  0  0  0  0  0  0  0  0  0
    5.9854    1.4703    3.6239 O   0  0  0  0  0  0  0  0  0  0  0  0
    3.9389    3.0487    3.7360 O   0  0  0  0  0  0  0  0  0  0  0  0
    3.6660    0.7051    4.5057 O   0  0  0  0  0  0  0  0  0  0  0  0
    1.8442   -1.8549    1.2133 C   0  0  0  0  0  0  0  0  0  0  0  0
    2.2138   -1.7753    2.6750 C   0  0  0  0  0  0  0  0  0  0  0  0
    1.3972   -1.8378    3.5826 O   0  0  0  0  0  0  0  0  0  0  0  0
    3.5420   -1.6637    2.9203 O   0  0  0  0  0  0  0  0  0  0  0  0
    2.8660   -0.5995   -1.8495 H   0  0  0  0  0  0  0  0  0  0  0  0
    1.2424   -1.1733   -1.4080 H   0  0  0  0  0  0  0  0  0  0  0  0
    2.6423   -2.2706   -1.3723 H   0  0  0  0  0  0  0  0  0  0  0  0
    4.4513   -0.2854    0.1065 H   0  0  0  0  0  0  0  0  0  0  0  0
    1.0900    0.7243    0.3255 H   0  0  0  0  0  0  0  0  0  0  0  0
    2.6742    1.2084   -0.2809 H   0  0  0  0  0  0  0  0  0  0  0  0
    1.9686    0.8191    2.6504 H   0  0  0  0  0  0  0  0  0  0  0  0
    2.2374    2.3358    1.7915 H   0  0  0  0  0  0  0  0  0  0  0  0
    4.3577    3.4397    4.5235 H   0  0  0  0  0  0  0  0  0  0  0  0
    3.8352   -0.2566    4.4026 H   0  0  0  0  0  0  0  0  0  0  0  0
    2.0608   -2.8876    0.9107 H   0  0  0  0  0  0  0  0  0  0  0  0
    0.7612   -1.7066    1.1243 H   0  0  0  0  0  0  0  0  0  0  0  0
    4.0394   -1.6207    2.0596 H   0  0  0  0  0  0  0  0  0  0  0  0
  1  2  1  0  0  0  0
  1 15  1  0  0  0  0
  1 16  1  0  0  0  0
  1 17  1  0  0  0  0
  2  3  1  1  0  0  0
  2  4  1  0  0  0  0
  2 11  1  0  0  0  0
  3 18  1  0  0  0  0
  4  5  1  0  0  0  0
  4 19  1  0  0  0  0
  4 20  1  0  0  0  0
  5  6  1  0  0  0  0
  5 21  1  0  0  0  0
  5 22  1  0  0  0  0
  6  7  1  0  0  0  0
  7  8  2  0  0  0  0
  7  9  1  0  0  0  0
  7 10  1  0  0  0  0
  9 23  1  0  0  0  0
 10 24  1  0  0  0  0
 11 12  1  0  0  0  0
 11 25  1  0  0  0  0
 11 26  1  0  0  0  0
 12 13  2  0  0  0  0
 12 14  1  0  0  0  0
 14 27  1  0  0  0  0
M  END
$$$$
