CHEBI:18203
 OpenBabel04242423463D

 45 46  0  0  1  0  0  0  0  0999 V2000
    3.1237    0.9710    0.0442 C   0  0  0  0  0  0  0  0  0  0  0  0
    2.0376    0.4287    0.9755 C   0  0  0  0  0  0  0  0  0  0  0  0
    2.5911    0.2482    2.3961 C   0  0  0  0  0  0  0  0  0  0  0  0
    1.5157   -1.2439    0.3546 S   0  0  0  0  0  0  0  0  0  0  0  0
   -0.1134   -1.1034    1.1770 C   0  0  2  0  0  0  0  0  0  0  0  0
   -1.3733   -1.2726    0.3054 C   0  0  2  0  0  0  0  0  0  0  0  0
   -1.1913   -1.8600   -1.0495 N   0  0  0  0  0  0  0  0  0  0  0  0
   -2.2781   -2.2576   -1.7950 C   0  0  0  0  0  0  0  0  0  0  0  0
   -3.4126   -2.3055   -1.3317 O   0  0  0  0  0  0  0  0  0  0  0  0
   -1.9312   -2.6378   -3.2218 C   0  0  0  0  0  0  0  0  0  0  0  0
   -3.1651   -2.7963   -4.1127 C   0  0  0  0  0  0  0  0  0  0  0  0
   -3.8724   -1.4572   -4.3735 C   0  0  0  0  0  0  0  0  0  0  0  0
   -5.1542   -1.6188   -5.1970 C   0  0  1  0  0  0  0  0  0  0  0  0
   -6.0228   -0.4086   -5.0283 N   0  0  0  0  0  0  0  0  0  0  0  0
   -4.8624   -1.7750   -6.7040 C   0  0  0  0  0  0  0  0  0  0  0  0
   -4.0059   -2.4884   -7.1994 O   0  0  0  0  0  0  0  0  0  0  0  0
   -5.7161   -1.0147   -7.4418 O   0  0  0  0  0  0  0  0  0  0  0  0
   -1.4351    0.2776    0.3570 C   0  0  0  0  0  0  0  0  0  0  0  0
   -2.0000    1.1761   -0.2200 O   0  0  0  0  0  0  0  0  0  0  0  0
   -0.3826    0.3517    1.2387 N   0  0  0  0  0  0  0  0  0  0  0  0
    0.7370    1.2515    0.9036 C   0  0  1  0  0  0  0  0  0  0  0  0
    0.7475    2.5007    1.7852 C   0  0  0  0  0  0  0  0  0  0  0  0
    1.6486    3.3270    1.7866 O   0  0  0  0  0  0  0  0  0  0  0  0
   -0.3523    2.6357    2.5630 O   0  0  0  0  0  0  0  0  0  0  0  0
    4.0057    0.3198    0.0312 H   0  0  0  0  0  0  0  0  0  0  0  0
    3.4599    1.9616    0.3690 H   0  0  0  0  0  0  0  0  0  0  0  0
    2.7649    1.0712   -0.9868 H   0  0  0  0  0  0  0  0  0  0  0  0
    3.4231   -0.4659    2.4152 H   0  0  0  0  0  0  0  0  0  0  0  0
    1.8281   -0.1066    3.0981 H   0  0  0  0  0  0  0  0  0  0  0  0
    2.9800    1.1931    2.7912 H   0  0  0  0  0  0  0  0  0  0  0  0
   -0.1677   -1.5722    2.1645 H   0  0  0  0  0  0  0  0  0  0  0  0
   -2.2024   -1.7417    0.8487 H   0  0  0  0  0  0  0  0  0  0  0  0
   -0.2778   -1.8275   -1.4935 H   0  0  0  0  0  0  0  0  0  0  0  0
   -1.3909   -3.5909   -3.1852 H   0  0  0  0  0  0  0  0  0  0  0  0
   -1.2580   -1.8837   -3.6447 H   0  0  0  0  0  0  0  0  0  0  0  0
   -3.8676   -3.5022   -3.6534 H   0  0  0  0  0  0  0  0  0  0  0  0
   -2.8448   -3.2373   -5.0624 H   0  0  0  0  0  0  0  0  0  0  0  0
   -3.1787   -0.7736   -4.8795 H   0  0  0  0  0  0  0  0  0  0  0  0
   -4.1232   -0.9957   -3.4112 H   0  0  0  0  0  0  0  0  0  0  0  0
   -5.7365   -2.4913   -4.8819 H   0  0  0  0  0  0  0  0  0  0  0  0
   -5.4148    0.4185   -5.0006 H   0  0  0  0  0  0  0  0  0  0  0  0
   -6.4107   -0.4483   -4.0790 H   0  0  0  0  0  0  0  0  0  0  0  0
   -6.2856   -0.5452   -6.7796 H   0  0  0  0  0  0  0  0  0  0  0  0
    0.5743    1.6145   -0.1217 H   0  0  0  0  0  0  0  0  0  0  0  0
   -1.0064    1.9312    2.3734 H   0  0  0  0  0  0  0  0  0  0  0  0
  1  2  1  0  0  0  0
  1 25  1  0  0  0  0
  1 26  1  0  0  0  0
  1 27  1  0  0  0  0
  2  3  1  0  0  0  0
  2  4  1  0  0  0  0
  2 21  1  0  0  0  0
  3 28  1  0  0  0  0
  3 29  1  0  0  0  0
  3 30  1  0  0  0  0
  4  5  1  0  0  0  0
  5  6  1  0  0  0  0
  5 20  1  0  0  0  0
  5 31  1  1  0  0  0
  6  7  1  0  0  0  0
  6 18  1  0  0  0  0
  6 32  1  1  0  0  0
  7  8  1  0  0  0  0
  7 33  1  0  0  0  0
  8  9  2  0  0  0  0
  8 10  1  0  0  0  0
 10 11  1  0  0  0  0
 10 34  1  0  0  0  0
 10 35  1  0  0  0  0
 11 12  1  0  0  0  0
 11 36  1  0  0  0  0
 11 37  1  0  0  0  0
 12 13  1  0  0  0  0
 12 38  1  0  0  0  0
 12 39  1  0  0  0  0
 13 14  1  0  0  0  0
 13 15  1  0  0  0  0
 13 40  1  1  0  0  0
 14 41  1  0  0  0  0
 14 42  1  0  0  0  0
 15 16  2  0  0  0  0
 15 17  1  0  0  0  0
 17 43  1  0  0  0  0
 18 19  2  0  0  0  0
 18 20  1  0  0  0  0
 20 21  1  0  0  0  0
 21 22  1  0  0  0  0
 21 44  1  6  0  0  0
 22 23  2  0  0  0  0
 22 24  1  0  0  0  0
 24 45  1  0  0  0  0
M  END
$$$$
