CHEBI:1269
 OpenBabel04242410363D

 26 26  0  0  0  0  0  0  0  0999 V2000
    1.3409    1.1074    0.3242 H   0  0  0  0  0  0  0  0  0  0  0  0
    2.4110    1.0478    0.1004 C   0  0  0  0  0  0  0  0  0  0  0  0
    3.1900    0.7536    1.3562 C   0  0  0  0  0  0  0  0  0  0  0  0
    3.0330    1.7881    2.4353 C   0  0  0  0  0  0  0  0  0  0  0  0
    3.9510   -0.3558    1.4429 C   0  0  0  0  0  0  0  0  0  0  0  0
    4.7809   -0.8382    2.6029 C   0  0  0  0  0  0  0  0  0  0  0  0
    6.2599   -0.8249    2.2928 C   0  0  0  0  0  0  0  0  0  0  0  0
    7.0029    0.3475    2.5063 C   0  0  0  0  0  0  0  0  0  0  0  0
    8.3675    0.3902    2.2147 C   0  0  0  0  0  0  0  0  0  0  0  0
    9.0058   -0.7359    1.6992 C   0  0  0  0  0  0  0  0  0  0  0  0
    8.2803   -1.9048    1.4703 C   0  0  0  0  0  0  0  0  0  0  0  0
    6.9163   -1.9422    1.7635 C   0  0  0  0  0  0  0  0  0  0  0  0
    6.2006   -3.0834    1.5310 O   0  0  0  0  0  0  0  0  0  0  0  0
    2.7309    2.0027   -0.3295 H   0  0  0  0  0  0  0  0  0  0  0  0
    2.5476    0.2768   -0.6651 H   0  0  0  0  0  0  0  0  0  0  0  0
    1.9912    1.8255    2.7706 H   0  0  0  0  0  0  0  0  0  0  0  0
    3.3060    2.7764    2.0501 H   0  0  0  0  0  0  0  0  0  0  0  0
    3.6567    1.6037    3.3120 H   0  0  0  0  0  0  0  0  0  0  0  0
    3.9847   -1.0286    0.5852 H   0  0  0  0  0  0  0  0  0  0  0  0
    4.4593   -1.8543    2.8632 H   0  0  0  0  0  0  0  0  0  0  0  0
    4.6041   -0.2563    3.5130 H   0  0  0  0  0  0  0  0  0  0  0  0
    6.5146    1.2368    2.8990 H   0  0  0  0  0  0  0  0  0  0  0  0
    8.9301    1.3041    2.3869 H   0  0  0  0  0  0  0  0  0  0  0  0
   10.0678   -0.7009    1.4715 H   0  0  0  0  0  0  0  0  0  0  0  0
    8.7916   -2.7712    1.0628 H   0  0  0  0  0  0  0  0  0  0  0  0
    6.7952   -3.7514    1.1533 H   0  0  0  0  0  0  0  0  0  0  0  0
  1  2  1  0  0  0  0
  2  3  1  0  0  0  0
  2 14  1  0  0  0  0
  2 15  1  0  0  0  0
  3  4  1  0  0  0  0
  3  5  2  0  0  0  0
  4 16  1  0  0  0  0
  4 17  1  0  0  0  0
  4 18  1  0  0  0  0
  5  6  1  0  0  0  0
  5 19  1  0  0  0  0
  6  7  1  0  0  0  0
  6 20  1  0  0  0  0
  6 21  1  0  0  0  0
  7  8  1  0  0  0  0
  7 12  2  0  0  0  0
  8  9  2  0  0  0  0
  8 22  1  0  0  0  0
  9 10  1  0  0  0  0
  9 23  1  0  0  0  0
 10 11  2  0  0  0  0
 10 24  1  0  0  0  0
 11 12  1  0  0  0  0
 11 25  1  0  0  0  0
 12 13  1  0  0  0  0
 13 26  1  0  0  0  0
M  END
$$$$
