CHEBI:17807
 OpenBabel04242417383D

 24 24  0  0  0  0  0  0  0  0999 V2000
    3.9177   -0.5255    3.4022 O   0  0  0  0  0  0  0  0  0  0  0  0
    3.5030    0.5664    3.0445 C   0  0  0  0  0  0  0  0  0  0  0  0
    3.0815    1.5249    3.9081 O   0  0  0  0  0  0  0  0  0  0  0  0
    3.3996    1.0280    1.5926 C   0  0  0  0  0  0  0  0  0  0  0  0
    2.5329    2.1695    1.5046 O   0  0  0  0  0  0  0  0  0  0  0  0
    4.7796    1.3368    1.0049 C   0  0  0  0  0  0  0  0  0  0  0  0
    5.5315    2.4392    1.7190 C   0  0  0  0  0  0  0  0  0  0  0  0
    6.4074    2.1380    2.7771 C   0  0  0  0  0  0  0  0  0  0  0  0
    7.0879    3.1549    3.4545 C   0  0  0  0  0  0  0  0  0  0  0  0
    6.8931    4.4746    3.0684 C   0  0  0  0  0  0  0  0  0  0  0  0
    7.5292    5.5123    3.6919 O   0  0  0  0  0  0  0  0  0  0  0  0
    6.0283    4.7801    2.0216 C   0  0  0  0  0  0  0  0  0  0  0  0
    5.8420    6.0809    1.6495 O   0  0  0  0  0  0  0  0  0  0  0  0
    5.3446    3.7782    1.3471 C   0  0  0  0  0  0  0  0  0  0  0  0
    2.8764    2.3401    3.3913 H   0  0  0  0  0  0  0  0  0  0  0  0
    2.9264    0.2227    1.0191 H   0  0  0  0  0  0  0  0  0  0  0  0
    1.6183    1.8287    1.4810 H   0  0  0  0  0  0  0  0  0  0  0  0
    4.6657    1.6283   -0.0474 H   0  0  0  0  0  0  0  0  0  0  0  0
    5.3966    0.4291    1.0053 H   0  0  0  0  0  0  0  0  0  0  0  0
    6.5604    1.1048    3.0873 H   0  0  0  0  0  0  0  0  0  0  0  0
    7.7538    2.8950    4.2710 H   0  0  0  0  0  0  0  0  0  0  0  0
    8.0830    5.1419    4.4007 H   0  0  0  0  0  0  0  0  0  0  0  0
    6.4229    6.5902    2.2492 H   0  0  0  0  0  0  0  0  0  0  0  0
    4.6686    4.0446    0.5388 H   0  0  0  0  0  0  0  0  0  0  0  0
  1  2  2  0  0  0  0
  2  3  1  0  0  0  0
  2  4  1  0  0  0  0
  3 15  1  0  0  0  0
  4  5  1  0  0  0  0
  4  6  1  0  0  0  0
  4 16  1  0  0  0  0
  5 17  1  0  0  0  0
  6  7  1  0  0  0  0
  6 18  1  0  0  0  0
  6 19  1  0  0  0  0
  7  8  1  0  0  0  0
  7 14  2  0  0  0  0
  8  9  2  0  0  0  0
  8 20  1  0  0  0  0
  9 10  1  0  0  0  0
  9 21  1  0  0  0  0
 10 11  1  0  0  0  0
 10 12  2  0  0  0  0
 11 22  1  0  0  0  0
 12 13  1  0  0  0  0
 12 14  1  0  0  0  0
 13 23  1  0  0  0  0
 14 24  1  0  0  0  0
M  END
$$$$
