CHEBI:17980
 OpenBabel04242423213D

 46 48  0  0  1  0  0  0  0  0999 V2000
    6.0076   -7.0386    6.0732 N   0  0  0  0  0  0  0  0  0  0  0  0
    6.0088   -6.0988    5.0502 C   0  0  0  0  0  0  0  0  0  0  0  0
    6.1472   -4.7941    5.3761 N   0  0  0  0  0  0  0  0  0  0  0  0
    6.1255   -3.8811    4.3806 C   0  0  0  0  0  0  0  0  0  0  0  0
    5.9886   -4.0847    3.0532 N   0  0  0  0  0  0  0  0  0  0  0  0
    5.8727   -5.3970    2.7828 C   0  0  0  0  0  0  0  0  0  0  0  0
    5.8836   -6.4423    3.6941 C   0  0  0  0  0  0  0  0  0  0  0  0
    5.7681   -7.6591    3.0538 N   0  0  0  0  0  0  0  0  0  0  0  0
    5.6616   -7.3541    1.7784 C   0  0  0  0  0  0  0  0  0  0  0  0
    5.6959   -5.9991    1.5674 N   0  0  0  0  0  0  0  0  0  0  0  0
    5.5443   -5.3616    0.2803 C   0  0  2  0  0  0  0  0  0  0  0  0
    6.7672   -4.6800   -0.0549 O   0  0  0  0  0  0  0  0  0  0  0  0
    6.4202   -3.5459   -0.8742 C   0  0  2  0  0  0  0  0  0  0  0  0
    7.0030   -2.2689   -0.2637 C   0  0  0  0  0  0  0  0  0  0  0  0
    6.5817   -1.1137   -0.9750 O   0  0  0  0  0  0  0  0  0  0  0  0
    7.2769   -0.7794   -2.3919 P   0  0  0  0  0  0  0  0  0  0  0  0
    7.2169   -1.9306   -3.3457 O   0  0  0  0  0  0  0  0  0  0  0  0
    6.3638    0.4545   -2.8539 O   0  0  0  0  0  0  0  0  0  0  0  0
    8.6541   -0.1283   -1.9630 O   0  0  0  0  0  0  0  0  0  0  0  0
    9.7089   -0.2586   -3.1591 S   0  0  0  0  0  0  0  0  0  0  0  0
   10.7824    0.6705   -2.8867 O   0  0  0  0  0  0  0  0  0  0  0  0
    9.9884   -1.6551   -3.3988 O   0  0  0  0  0  0  0  0  0  0  0  0
    8.9638    0.3569   -4.4453 O   0  0  0  0  0  0  0  0  0  0  0  0
    4.8939   -3.5015   -1.0056 C   0  0  1  0  0  0  0  0  0  0  0  0
    4.4663   -4.1785   -2.1902 O   0  0  0  0  0  0  0  0  0  0  0  0
    4.4731   -3.3617   -3.5716 P   0  0  0  0  0  0  0  0  0  0  0  0
    4.3235   -1.8773   -3.4879 O   0  0  0  0  0  0  0  0  0  0  0  0
    5.8188   -3.8400   -4.2768 O   0  0  0  0  0  0  0  0  0  0  0  0
    3.3816   -4.1105   -4.4578 O   0  0  0  0  0  0  0  0  0  0  0  0
    4.4311   -4.3189    0.1897 C   0  0  1  0  0  0  0  0  0  0  0  0
    3.1367   -4.8799   -0.0109 O   0  0  0  0  0  0  0  0  0  0  0  0
    6.4600   -6.6967    6.9098 H   0  0  0  0  0  0  0  0  0  0  0  0
    6.2354   -7.9750    5.7575 H   0  0  0  0  0  0  0  0  0  0  0  0
    6.2302   -2.8460    4.6934 H   0  0  0  0  0  0  0  0  0  0  0  0
    5.5521   -8.0687    0.9718 H   0  0  0  0  0  0  0  0  0  0  0  0
    5.3879   -6.1549   -0.4623 H   0  0  0  0  0  0  0  0  0  0  0  0
    6.8848   -3.7337   -1.8427 H   0  0  0  0  0  0  0  0  0  0  0  0
    6.6754   -2.1619    0.7762 H   0  0  0  0  0  0  0  0  0  0  0  0
    8.0974   -2.3165   -0.2372 H   0  0  0  0  0  0  0  0  0  0  0  0
    5.4785    0.1348   -3.1369 H   0  0  0  0  0  0  0  0  0  0  0  0
    9.3033    1.2690   -4.5742 H   0  0  0  0  0  0  0  0  0  0  0  0
    4.4540   -2.5004   -0.9986 H   0  0  0  0  0  0  0  0  0  0  0  0
    6.5550   -3.2019   -4.0956 H   0  0  0  0  0  0  0  0  0  0  0  0
    3.3998   -3.8124   -5.3840 H   0  0  0  0  0  0  0  0  0  0  0  0
    4.3952   -3.6773    1.0752 H   0  0  0  0  0  0  0  0  0  0  0  0
    3.0408   -5.0473   -0.9700 H   0  0  0  0  0  0  0  0  0  0  0  0
  1  2  1  0  0  0  0
  1 32  1  0  0  0  0
  1 33  1  0  0  0  0
  2  3  1  0  0  0  0
  2  7  2  0  0  0  0
  3  4  2  0  0  0  0
  4  5  1  0  0  0  0
  4 34  1  0  0  0  0
  5  6  2  0  0  0  0
  6  7  1  0  0  0  0
  6 10  1  0  0  0  0
  7  8  1  0  0  0  0
  8  9  2  0  0  0  0
  9 10  1  0  0  0  0
  9 35  1  0  0  0  0
 11 12  1  0  0  0  0
 11 30  1  0  0  0  0
 11 10  1  0  0  0  0
 11 36  1  6  0  0  0
 12 13  1  0  0  0  0
 13 24  1  0  0  0  0
 13 14  1  0  0  0  0
 13 37  1  6  0  0  0
 14 15  1  0  0  0  0
 14 38  1  0  0  0  0
 14 39  1  0  0  0  0
 15 16  1  0  0  0  0
 16 17  2  0  0  0  0
 16 18  1  0  0  0  0
 16 19  1  0  0  0  0
 18 40  1  0  0  0  0
 19 20  1  0  0  0  0
 20 21  2  0  0  0  0
 20 22  2  0  0  0  0
 20 23  1  0  0  0  0
 23 41  1  0  0  0  0
 24 30  1  0  0  0  0
 24 25  1  0  0  0  0
 24 42  1  1  0  0  0
 25 26  1  0  0  0  0
 26 27  2  0  0  0  0
 26 28  1  0  0  0  0
 26 29  1  0  0  0  0
 28 43  1  0  0  0  0
 29 44  1  0  0  0  0
 30 31  1  0  0  0  0
 30 45  1  1  0  0  0
 31 46  1  0  0  0  0
M  END
$$$$
