CHEBI:17558
 OpenBabel04242416493D

 52 55  0  0  1  0  0  0  0  0999 V2000
    4.0413    1.3039    0.3059 C   0  0  0  0  0  0  0  0  0  0  0  0
    2.8138    1.1074   -0.5789 C   0  0  2  0  0  0  0  0  0  0  0  0
    3.0955    0.0221   -1.4619 O   0  0  0  0  0  0  0  0  0  0  0  0
    2.0391   -0.2720   -2.3953 C   0  0  1  0  0  0  0  0  0  0  0  0
    0.8644   -0.7054   -1.6869 O   0  0  0  0  0  0  0  0  0  0  0  0
    0.6406   -2.0708   -1.7538 C   0  0  0  0  0  0  0  0  0  0  0  0
    0.3743   -2.8118   -0.6612 C   0  0  0  0  0  0  0  0  0  0  0  0
    0.2902   -2.2453    0.7018 C   0  0  0  0  0  0  0  0  0  0  0  0
   -0.5245   -1.1318    0.9837 C   0  0  0  0  0  0  0  0  0  0  0  0
   -0.6467   -0.6370    2.2876 C   0  0  0  0  0  0  0  0  0  0  0  0
    0.0399   -1.2678    3.3158 C   0  0  0  0  0  0  0  0  0  0  0  0
   -0.0490   -0.8450    4.6126 O   0  0  0  0  0  0  0  0  0  0  0  0
    0.8413   -2.3741    3.0492 C   0  0  0  0  0  0  0  0  0  0  0  0
    1.5011   -2.9986    4.0692 O   0  0  0  0  0  0  0  0  0  0  0  0
    0.9722   -2.8674    1.7576 C   0  0  0  0  0  0  0  0  0  0  0  0
    0.1382   -4.1764   -0.6821 O   0  0  0  0  0  0  0  0  0  0  0  0
    0.3058   -4.8561   -1.8603 C   0  0  0  0  0  0  0  0  0  0  0  0
    0.2334   -6.2493   -1.7810 C   0  0  0  0  0  0  0  0  0  0  0  0
    0.4030   -7.0034   -2.9352 C   0  0  0  0  0  0  0  0  0  0  0  0
    0.3452   -8.3649   -2.9110 O   0  0  0  0  0  0  0  0  0  0  0  0
    0.6448   -6.3898   -4.1595 C   0  0  0  0  0  0  0  0  0  0  0  0
    0.7095   -4.9966   -4.2325 C   0  0  0  0  0  0  0  0  0  0  0  0
    0.9740   -4.4116   -5.4371 O   0  0  0  0  0  0  0  0  0  0  0  0
    0.5305   -4.2197   -3.0810 C   0  0  0  0  0  0  0  0  0  0  0  0
    0.5554   -2.7425   -3.0851 C   0  0  0  0  0  0  0  0  0  0  0  0
    0.4803   -2.0677   -4.1062 O   0  0  0  0  0  0  0  0  0  0  0  0
    1.6767    0.9574   -3.2526 C   0  0  2  0  0  0  0  0  0  0  0  0
    2.7620    1.3341   -4.1176 O   0  0  0  0  0  0  0  0  0  0  0  0
    1.3427    2.1408   -2.3447 C   0  0  2  0  0  0  0  0  0  0  0  0
    1.1415    3.3184   -3.1473 O   0  0  0  0  0  0  0  0  0  0  0  0
    2.4751    2.3966   -1.3436 C   0  0  1  0  0  0  0  0  0  0  0  0
    2.0706    3.4604   -0.4672 O   0  0  0  0  0  0  0  0  0  0  0  0
    4.2817    0.3758    0.8358 H   0  0  0  0  0  0  0  0  0  0  0  0
    3.8848    2.0954    1.0446 H   0  0  0  0  0  0  0  0  0  0  0  0
    4.9205    1.5561   -0.2978 H   0  0  0  0  0  0  0  0  0  0  0  0
    1.9799    0.8279    0.0769 H   0  0  0  0  0  0  0  0  0  0  0  0
    2.4558   -1.0462   -3.0488 H   0  0  0  0  0  0  0  0  0  0  0  0
   -1.0866   -0.6504    0.1853 H   0  0  0  0  0  0  0  0  0  0  0  0
   -1.2857    0.2198    2.4747 H   0  0  0  0  0  0  0  0  0  0  0  0
   -0.6686   -0.0961    4.6488 H   0  0  0  0  0  0  0  0  0  0  0  0
    1.2555   -2.4921    4.8690 H   0  0  0  0  0  0  0  0  0  0  0  0
    1.5990   -3.7380    1.5838 H   0  0  0  0  0  0  0  0  0  0  0  0
    0.0500   -6.7212   -0.8205 H   0  0  0  0  0  0  0  0  0  0  0  0
    0.1768   -8.6622   -2.0008 H   0  0  0  0  0  0  0  0  0  0  0  0
    0.7839   -7.0088   -5.0409 H   0  0  0  0  0  0  0  0  0  0  0  0
    1.0431   -5.0861   -6.1318 H   0  0  0  0  0  0  0  0  0  0  0  0
    0.8180    0.7378   -3.8972 H   0  0  0  0  0  0  0  0  0  0  0  0
    2.4865    2.1903   -4.5026 H   0  0  0  0  0  0  0  0  0  0  0  0
    0.4025    1.9636   -1.8088 H   0  0  0  0  0  0  0  0  0  0  0  0
    1.2329    4.0743   -2.5327 H   0  0  0  0  0  0  0  0  0  0  0  0
    3.3560    2.7612   -1.8862 H   0  0  0  0  0  0  0  0  0  0  0  0
    1.4374    3.0986    0.1773 H   0  0  0  0  0  0  0  0  0  0  0  0
  1  2  1  0  0  0  0
  1 33  1  0  0  0  0
  1 34  1  0  0  0  0
  1 35  1  0  0  0  0
  2  3  1  0  0  0  0
  2 31  1  0  0  0  0
  2 36  1  1  0  0  0
  3  4  1  0  0  0  0
  4 27  1  0  0  0  0
  4  5  1  0  0  0  0
  4 37  1  6  0  0  0
  5  6  1  0  0  0  0
  6  7  2  0  0  0  0
  6 25  1  0  0  0  0
  7  8  1  0  0  0  0
  7 16  1  0  0  0  0
  8  9  1  0  0  0  0
  8 15  2  0  0  0  0
  9 10  2  0  0  0  0
  9 38  1  0  0  0  0
 10 11  1  0  0  0  0
 10 39  1  0  0  0  0
 11 12  1  0  0  0  0
 11 13  2  0  0  0  0
 12 40  1  0  0  0  0
 13 14  1  0  0  0  0
 13 15  1  0  0  0  0
 14 41  1  0  0  0  0
 15 42  1  0  0  0  0
 16 17  1  0  0  0  0
 17 18  1  0  0  0  0
 17 24  2  0  0  0  0
 18 19  2  0  0  0  0
 18 43  1  0  0  0  0
 19 20  1  0  0  0  0
 19 21  1  0  0  0  0
 20 44  1  0  0  0  0
 21 22  2  0  0  0  0
 21 45  1  0  0  0  0
 22 23  1  0  0  0  0
 22 24  1  0  0  0  0
 23 46  1  0  0  0  0
 24 25  1  0  0  0  0
 25 26  2  0  0  0  0
 27 28  1  0  0  0  0
 27 29  1  0  0  0  0
 27 47  1  6  0  0  0
 28 48  1  0  0  0  0
 29 30  1  0  0  0  0
 29 31  1  0  0  0  0
 29 49  1  1  0  0  0
 30 50  1  0  0  0  0
 31 32  1  0  0  0  0
 31 51  1  6  0  0  0
 32 52  1  0  0  0  0
M  END
$$$$
