CHEBI:17645
 OpenBabel04242417003D

 21 20  0  0  0  0  0  0  0  0999 V2000
    0.5730    3.6609   -4.2639 C   0  0  0  0  0  0  0  0  0  0  0  0
    2.0510    3.3867   -4.3320 C   0  0  0  0  0  0  0  0  0  0  0  0
    2.7167    3.6555   -5.3296 O   0  0  0  0  0  0  0  0  0  0  0  0
    2.5855    2.8383   -3.1923 N   0  0  0  0  0  0  0  0  0  0  0  0
    3.9605    2.3844   -3.0910 C   0  0  0  0  0  0  0  0  0  0  0  0
    4.9496    3.4973   -2.7404 C   0  0  0  0  0  0  0  0  0  0  0  0
    5.2986    4.4402   -3.8879 C   0  0  0  0  0  0  0  0  0  0  0  0
    5.9510    3.7136   -5.0369 C   0  0  0  0  0  0  0  0  0  0  0  0
    7.1074    3.3137   -5.0060 O   0  0  0  0  0  0  0  0  0  0  0  0
    5.1422    3.4960   -6.0921 O   0  0  0  0  0  0  0  0  0  0  0  0
    0.1305    3.2860   -3.3372 H   0  0  0  0  0  0  0  0  0  0  0  0
    0.0822    3.1649   -5.1058 H   0  0  0  0  0  0  0  0  0  0  0  0
    0.4068    4.7397   -4.3217 H   0  0  0  0  0  0  0  0  0  0  0  0
    1.9619    2.5960   -2.4316 H   0  0  0  0  0  0  0  0  0  0  0  0
    4.2374    1.8673   -4.0148 H   0  0  0  0  0  0  0  0  0  0  0  0
    3.9708    1.6412   -2.2854 H   0  0  0  0  0  0  0  0  0  0  0  0
    5.8762    3.0257   -2.3889 H   0  0  0  0  0  0  0  0  0  0  0  0
    4.5591    4.0883   -1.9028 H   0  0  0  0  0  0  0  0  0  0  0  0
    6.0218    5.1881   -3.5385 H   0  0  0  0  0  0  0  0  0  0  0  0
    4.4364    5.0202   -4.2263 H   0  0  0  0  0  0  0  0  0  0  0  0
    4.1934    3.7337   -5.9270 H   0  0  0  0  0  0  0  0  0  0  0  0
  1  2  1  0  0  0  0
  1 11  1  0  0  0  0
  1 12  1  0  0  0  0
  1 13  1  0  0  0  0
  2  3  2  0  0  0  0
  2  4  1  0  0  0  0
  4  5  1  0  0  0  0
  4 14  1  0  0  0  0
  5  6  1  0  0  0  0
  5 15  1  0  0  0  0
  5 16  1  0  0  0  0
  6  7  1  0  0  0  0
  6 17  1  0  0  0  0
  6 18  1  0  0  0  0
  7  8  1  0  0  0  0
  7 19  1  0  0  0  0
  7 20  1  0  0  0  0
  8  9  2  0  0  0  0
  8 10  1  0  0  0  0
 10 21  1  0  0  0  0
M  END
$$$$
