CHEBI:16854
 OpenBabel04242415253D

 17 16  0  0  0  0  0  0  0  0999 V2000
    3.1648    2.4322    3.8534 O   0  0  0  0  0  0  0  0  0  0  0  0
    2.3345    2.2945    2.9122 C   0  0  0  0  0  0  0  0  0  0  0  0
    1.1634    2.7597    2.8032 O   0  5  0  0  0  0  0  0  0  0  0  0
    2.7973    1.4821    1.7094 C   0  0  0  0  0  0  0  0  0  0  0  0
    3.9976    0.8833    1.6787 C   0  0  0  0  0  0  0  0  0  0  0  0
    4.4771    0.1461    0.4709 C   0  0  0  0  0  0  0  0  0  0  0  0
    3.7110   -0.1535   -0.4472 O   0  0  0  0  0  0  0  0  0  0  0  0
    5.9558   -0.1342    0.3888 C   0  0  0  0  0  0  0  0  0  0  0  0
    6.3328   -1.5692    0.6114 C   0  0  0  0  0  0  0  0  0  0  0  0
    5.6559   -2.3832    1.2392 O   0  0  0  0  0  0  0  0  0  0  0  0
    7.7065   -2.0221    0.1012 C   0  0  0  0  0  0  0  0  0  0  0  0
    8.4689   -1.0883   -0.3141 O   0  0  0  0  0  0  0  0  0  0  0  0
    7.9858   -3.2631    0.1253 O   0  5  0  0  0  0  0  0  0  0  0  0
    2.1187    1.4165    0.8648 H   0  0  0  0  0  0  0  0  0  0  0  0
    4.6788    0.9560    2.5201 H   0  0  0  0  0  0  0  0  0  0  0  0
    6.5012    0.4814    1.1120 H   0  0  0  0  0  0  0  0  0  0  0  0
    6.2754    0.1819   -0.6110 H   0  0  0  0  0  0  0  0  0  0  0  0
  1  2  2  0  0  0  0
  2  3  1  0  0  0  0
  2  4  1  0  0  0  0
  4  5  2  0  0  0  0
  4 14  1  0  0  0  0
  5  6  1  0  0  0  0
  5 15  1  0  0  0  0
  6  7  2  0  0  0  0
  6  8  1  0  0  0  0
  8  9  1  0  0  0  0
  8 16  1  0  0  0  0
  8 17  1  0  0  0  0
  9 10  2  0  0  0  0
  9 11  1  0  0  0  0
 11 12  2  0  0  0  0
 11 13  1  0  0  0  0
M  CHG  2   3  -1  13  -1
M  END
$$$$
