CHEBI:15644
 OpenBabel04242412593D

 77 81  0  0  1  0  0  0  0  0999 V2000
   13.5420   -7.0830    5.3863 N   0  0  0  0  0  0  0  0  0  0  0  0
   13.5427   -6.2677    4.3036 C   0  0  0  0  0  0  0  0  0  0  0  0
   14.1755   -5.2194    4.3039 O   0  0  0  0  0  0  0  0  0  0  0  0
   12.7432   -6.7081    3.1275 C   0  0  0  0  0  0  0  0  0  0  0  0
   12.9752   -6.0232    1.9935 C   0  0  0  0  0  0  0  0  0  0  0  0
   12.2470   -6.3327    0.7842 N   0  3  0  0  0  0  0  0  0  0  0  0
   11.2020   -5.2818    0.5186 C   0  0  2  0  0  0  0  0  0  0  0  0
   10.1437   -5.7220   -0.3346 O   0  0  0  0  0  0  0  0  0  0  0  0
    9.6712   -4.5766   -1.0982 C   0  0  2  0  0  0  0  0  0  0  0  0
    9.8024   -4.9001   -2.5908 C   0  0  0  0  0  0  0  0  0  0  0  0
    8.9165   -5.9734   -2.8710 O   0  0  0  0  0  0  0  0  0  0  0  0
    8.9059   -6.5072   -4.5166 P   0  0  0  0  0  0  0  0  0  0  0  0
   10.0330   -7.4917   -4.1867 O   0  0  0  0  0  0  0  0  0  0  0  0
    7.5368   -7.3444   -4.2267 O   0  0  0  0  0  0  0  0  0  0  0  0
    8.8953   -7.0410   -6.1621 O   0  0  0  0  0  0  0  0  0  0  0  0
    9.9237   -6.4567   -7.2173 P   0  0  0  0  0  0  0  0  0  0  0  0
   10.6863   -7.4303   -8.0481 O   0  0  0  0  0  0  0  0  0  0  0  0
    8.9479   -5.5654   -8.1264 O   0  0  0  0  0  0  0  0  0  0  0  0
   10.7920   -5.3695   -6.4233 O   0  0  0  0  0  0  0  0  0  0  0  0
   11.6390   -4.5064   -7.1767 C   0  0  0  0  0  0  0  0  0  0  0  0
   10.8526   -3.2486   -7.5467 C   0  0  1  0  0  0  0  0  0  0  0  0
   10.3458   -2.6711   -6.3162 O   0  0  0  0  0  0  0  0  0  0  0  0
   10.9098   -1.3551   -6.1867 C   0  0  1  0  0  0  0  0  0  0  0  0
   11.1418   -1.1106   -4.7810 N   0  0  0  0  0  0  0  0  0  0  0  0
   10.2300   -0.5156   -3.9418 C   0  0  0  0  0  0  0  0  0  0  0  0
   10.7078   -0.3546   -2.7255 N   0  0  0  0  0  0  0  0  0  0  0  0
   11.9828   -0.8723   -2.7847 C   0  0  0  0  0  0  0  0  0  0  0  0
   12.9833   -1.0119   -1.8110 C   0  0  0  0  0  0  0  0  0  0  0  0
   12.8258   -0.5937   -0.4868 N   0  0  0  0  0  0  0  0  0  0  0  0
   14.1152   -1.6686   -2.1332 N   0  0  0  0  0  0  0  0  0  0  0  0
   14.2428   -2.1485   -3.3880 C   0  0  0  0  0  0  0  0  0  0  0  0
   13.3436   -2.0992   -4.3895 N   0  0  0  0  0  0  0  0  0  0  0  0
   12.2428   -1.4193   -4.0299 C   0  0  0  0  0  0  0  0  0  0  0  0
   12.1209   -1.2780   -7.1190 C   0  0  2  0  0  0  0  0  0  0  0  0
   12.3810    0.0483   -7.5695 O   0  0  0  0  0  0  0  0  0  0  0  0
   11.6803   -2.1810   -8.2570 C   0  0  2  0  0  0  0  0  0  0  0  0
   10.8446   -1.3933   -9.1233 O   0  0  0  0  0  0  0  0  0  0  0  0
   10.5283   -3.3871   -0.6707 C   0  0  1  0  0  0  0  0  0  0  0  0
    9.9148   -2.7220    0.4332 O   0  0  0  0  0  0  0  0  0  0  0  0
   11.8050   -4.0668   -0.2025 C   0  0  1  0  0  0  0  0  0  0  0  0
   12.6410   -3.2926    0.6399 O   0  0  0  0  0  0  0  0  0  0  0  0
   11.7342   -7.7241    0.7360 C   0  0  1  0  0  0  0  0  0  0  0  0
   12.8052   -8.6394    0.6035 O   0  0  0  0  0  0  0  0  0  0  0  0
   10.9203   -8.0236    1.9887 C   0  0  0  0  0  0  0  0  0  0  0  0
   11.7709   -7.8418    3.2438 C   0  0  0  0  0  0  0  0  0  0  0  0
   14.1044   -6.7909    6.1784 H   0  0  0  0  0  0  0  0  0  0  0  0
   13.1034   -7.9897    5.4467 H   0  0  0  0  0  0  0  0  0  0  0  0
   13.7123   -5.2150    1.9667 H   0  0  0  0  0  0  0  0  0  0  0  0
   12.9121   -6.3098    0.0051 H   0  0  0  0  0  0  0  0  0  0  0  0
   10.7616   -5.0046    1.4866 H   0  0  0  0  0  0  0  0  0  0  0  0
    8.6166   -4.4361   -0.8349 H   0  0  0  0  0  0  0  0  0  0  0  0
   10.8206   -5.2149   -2.8405 H   0  0  0  0  0  0  0  0  0  0  0  0
    9.5239   -4.0395   -3.2068 H   0  0  0  0  0  0  0  0  0  0  0  0
    7.7882   -8.2428   -3.9402 H   0  0  0  0  0  0  0  0  0  0  0  0
    8.4901   -6.1278   -8.7824 H   0  0  0  0  0  0  0  0  0  0  0  0
   12.0214   -5.0194   -8.0658 H   0  0  0  0  0  0  0  0  0  0  0  0
   12.4897   -4.2610   -6.5329 H   0  0  0  0  0  0  0  0  0  0  0  0
    9.9775   -3.5000   -8.1476 H   0  0  0  0  0  0  0  0  0  0  0  0
   10.1440   -0.6377   -6.5090 H   0  0  0  0  0  0  0  0  0  0  0  0
    9.2402   -0.2229   -4.2739 H   0  0  0  0  0  0  0  0  0  0  0  0
   12.1706    0.1865   -0.4306 H   0  0  0  0  0  0  0  0  0  0  0  0
   13.7418   -0.3767   -0.0954 H   0  0  0  0  0  0  0  0  0  0  0  0
   15.1829   -2.6460   -3.6120 H   0  0  0  0  0  0  0  0  0  0  0  0
   13.0352   -1.6823   -6.6846 H   0  0  0  0  0  0  0  0  0  0  0  0
   11.8057    0.1823   -8.3533 H   0  0  0  0  0  0  0  0  0  0  0  0
   12.5111   -2.5661   -8.8553 H   0  0  0  0  0  0  0  0  0  0  0  0
   10.6042   -1.9475   -9.8903 H   0  0  0  0  0  0  0  0  0  0  0  0
   10.6758   -2.6670   -1.4681 H   0  0  0  0  0  0  0  0  0  0  0  0
    9.6477   -1.8308    0.1321 H   0  0  0  0  0  0  0  0  0  0  0  0
   12.3909   -4.3860   -1.0737 H   0  0  0  0  0  0  0  0  0  0  0  0
   12.6257   -2.3618    0.3217 H   0  0  0  0  0  0  0  0  0  0  0  0
   11.1232   -7.8323   -0.1659 H   0  0  0  0  0  0  0  0  0  0  0  0
   12.4182   -9.5152    0.4186 H   0  0  0  0  0  0  0  0  0  0  0  0
   10.5438   -9.0529    1.9624 H   0  0  0  0  0  0  0  0  0  0  0  0
   10.0437   -7.3658    2.0387 H   0  0  0  0  0  0  0  0  0  0  0  0
   12.3300   -8.7680    3.4259 H   0  0  0  0  0  0  0  0  0  0  0  0
   11.1043   -7.6902    4.1009 H   0  0  0  0  0  0  0  0  0  0  0  0
  1  2  1  0  0  0  0
  1 46  1  0  0  0  0
  1 47  1  0  0  0  0
  2  3  2  0  0  0  0
  2  4  1  0  0  0  0
  4  5  2  0  0  0  0
  4 45  1  0  0  0  0
  5  6  1  0  0  0  0
  5 48  1  0  0  0  0
  6  7  1  0  0  0  0
  6 42  1  0  0  0  0
  6 49  1  0  0  0  0
  7  8  1  0  0  0  0
  7 40  1  0  0  0  0
  7 50  1  1  0  0  0
  8  9  1  0  0  0  0
  9 10  1  0  0  0  0
  9 38  1  0  0  0  0
  9 51  1  1  0  0  0
 10 11  1  0  0  0  0
 10 52  1  0  0  0  0
 10 53  1  0  0  0  0
 11 12  1  0  0  0  0
 12 13  2  0  0  0  0
 12 14  1  0  0  0  0
 12 15  1  0  0  0  0
 14 54  1  0  0  0  0
 15 16  1  0  0  0  0
 16 17  2  0  0  0  0
 16 18  1  0  0  0  0
 16 19  1  0  0  0  0
 18 55  1  0  0  0  0
 19 20  1  0  0  0  0
 20 21  1  0  0  0  0
 20 56  1  0  0  0  0
 20 57  1  0  0  0  0
 21 22  1  0  0  0  0
 21 36  1  0  0  0  0
 21 58  1  6  0  0  0
 22 23  1  0  0  0  0
 23 24  1  0  0  0  0
 23 34  1  0  0  0  0
 23 59  1  6  0  0  0
 24 25  1  0  0  0  0
 24 33  1  0  0  0  0
 25 26  2  0  0  0  0
 25 60  1  0  0  0  0
 26 27  1  0  0  0  0
 27 28  1  0  0  0  0
 27 33  2  0  0  0  0
 28 29  1  0  0  0  0
 28 30  2  0  0  0  0
 29 61  1  0  0  0  0
 29 62  1  0  0  0  0
 30 31  1  0  0  0  0
 31 32  2  0  0  0  0
 31 63  1  0  0  0  0
 32 33  1  0  0  0  0
 34 35  1  0  0  0  0
 34 36  1  0  0  0  0
 34 64  1  1  0  0  0
 35 65  1  0  0  0  0
 36 37  1  0  0  0  0
 36 66  1  6  0  0  0
 37 67  1  0  0  0  0
 38 39  1  0  0  0  0
 38 40  1  0  0  0  0
 38 68  1  6  0  0  0
 39 69  1  0  0  0  0
 40 41  1  0  0  0  0
 40 70  1  6  0  0  0
 41 71  1  0  0  0  0
 42 44  1  0  0  0  0
 42 43  1  0  0  0  0
 42 72  1  6  0  0  0
 43 73  1  0  0  0  0
 44 45  1  0  0  0  0
 44 74  1  0  0  0  0
 44 75  1  0  0  0  0
 45 76  1  0  0  0  0
 45 77  1  0  0  0  0
M  CHG  1   6   1
M  END
$$$$
