CHEBI:165
 OpenBabel04242410353D

 27 28  0  0  1  0  0  0  0  0999 V2000
    1.1009    0.1696   -0.0225 C   0  0  0  0  0  0  0  0  0  0  0  0
    2.6044   -0.1123   -0.0940 C   0  0  0  0  0  0  0  0  0  0  0  0
    2.8497   -1.6192   -0.1323 C   0  0  0  0  0  0  0  0  0  0  0  0
    3.3244    0.5417    1.0834 C   0  0  0  0  0  0  0  0  0  0  0  0
    3.1957    0.2210    2.2555 O   0  0  0  0  0  0  0  0  0  0  0  0
    4.2616    1.6273    0.5572 C   0  0  1  0  0  0  0  0  0  0  0  0
    4.6323    2.6908    1.5588 C   0  0  0  0  0  0  0  0  0  0  0  0
    5.4358    0.8846   -0.1031 C   0  0  0  0  0  0  0  0  0  0  0  0
    4.7988    0.3137   -1.3870 C   0  0  0  0  0  0  0  0  0  0  0  0
    3.3051    0.6869   -1.2434 C   0  0  2  0  0  0  0  0  0  0  0  0
    3.4485    2.0989   -0.6514 C   0  0  0  0  0  0  0  0  0  0  0  0
    0.8742    1.2303    0.1202 H   0  0  0  0  0  0  0  0  0  0  0  0
    0.6449   -0.3580    0.8235 H   0  0  0  0  0  0  0  0  0  0  0  0
    0.5988   -0.1627   -0.9374 H   0  0  0  0  0  0  0  0  0  0  0  0
    3.8964   -1.8780    0.0562 H   0  0  0  0  0  0  0  0  0  0  0  0
    2.5557   -2.0393   -1.0998 H   0  0  0  0  0  0  0  0  0  0  0  0
    2.2695   -2.1295    0.6456 H   0  0  0  0  0  0  0  0  0  0  0  0
    5.1933    2.2630    2.3965 H   0  0  0  0  0  0  0  0  0  0  0  0
    3.7386    3.1690    1.9745 H   0  0  0  0  0  0  0  0  0  0  0  0
    5.2495    3.4698    1.0995 H   0  0  0  0  0  0  0  0  0  0  0  0
    5.8318    0.0843    0.5317 H   0  0  0  0  0  0  0  0  0  0  0  0
    6.2582    1.5618   -0.3592 H   0  0  0  0  0  0  0  0  0  0  0  0
    4.9821   -0.7565   -1.5079 H   0  0  0  0  0  0  0  0  0  0  0  0
    5.2284    0.8155   -2.2630 H   0  0  0  0  0  0  0  0  0  0  0  0
    2.7645    0.6470   -2.1925 H   0  0  0  0  0  0  0  0  0  0  0  0
    2.4972    2.5687   -0.3862 H   0  0  0  0  0  0  0  0  0  0  0  0
    4.0067    2.7810   -1.3032 H   0  0  0  0  0  0  0  0  0  0  0  0
  1  2  1  0  0  0  0
  1 12  1  0  0  0  0
  1 13  1  0  0  0  0
  1 14  1  0  0  0  0
  2  4  1  0  0  0  0
  2 10  1  0  0  0  0
  2  3  1  0  0  0  0
  3 15  1  0  0  0  0
  3 16  1  0  0  0  0
  3 17  1  0  0  0  0
  4  6  1  0  0  0  0
  4  5  2  0  0  0  0
  6  8  1  0  0  0  0
  6 11  1  0  0  0  0
  6  7  1  1  0  0  0
  7 18  1  0  0  0  0
  7 19  1  0  0  0  0
  7 20  1  0  0  0  0
  8  9  1  0  0  0  0
  8 21  1  0  0  0  0
  8 22  1  0  0  0  0
  9 10  1  0  0  0  0
  9 23  1  0  0  0  0
  9 24  1  0  0  0  0
 10 11  1  0  0  0  0
 10 25  1  6  0  0  0
 11 26  1  0  0  0  0
 11 27  1  0  0  0  0
M  END
$$$$
