CHEBI:16976
 OpenBabel04242415383D

 73 76  0  0  1  0  0  0  0  0999 V2000
    9.0078   -4.3657    0.6974 C   0  0  0  0  0  0  0  0  0  0  0  0
    7.5893   -4.6836    0.8137 N   0  0  0  0  0  0  0  0  0  0  0  0
    6.7813   -4.1826   -0.3236 C   0  0  1  0  0  0  0  0  0  0  0  0
    7.1343   -4.8361   -1.6605 C   0  0  0  0  0  0  0  0  0  0  0  0
    6.2223   -4.3041   -2.7632 C   0  0  1  0  0  0  0  0  0  0  0  0
    6.5746   -4.9514   -4.0378 N   0  0  0  0  0  0  0  0  0  0  0  0
    4.7467   -4.5716   -2.4298 C   0  0  2  0  0  0  0  0  0  0  0  0
    3.9302   -4.0057   -3.4719 O   0  0  0  0  0  0  0  0  0  0  0  0
    4.3046   -3.9973   -1.0654 C   0  0  1  0  0  0  0  0  0  0  0  0
    2.9876   -4.5639   -0.8730 O   0  0  0  0  0  0  0  0  0  0  0  0
    2.1982   -4.0895    0.2116 C   0  0  2  0  0  0  0  0  0  0  0  0
    1.1780   -5.0823    0.4854 O   0  0  0  0  0  0  0  0  0  0  0  0
    0.2168   -5.3184   -0.5751 C   0  0  2  0  0  0  0  0  0  0  0  0
    0.8012   -6.2468   -1.6567 C   0  0  0  0  0  0  0  0  0  0  0  0
   -0.2276   -6.9856   -2.3076 O   0  0  0  0  0  0  0  0  0  0  0  0
   -0.4045   -4.0003   -1.1233 C   0  0  2  0  0  0  0  0  0  0  0  0
   -1.1546   -4.1756   -2.3200 O   0  0  0  0  0  0  0  0  0  0  0  0
    0.6922   -2.9706   -1.3539 C   0  0  2  0  0  0  0  0  0  0  0  0
    0.2279   -1.6518   -1.6394 O   0  0  0  0  0  0  0  0  0  0  0  0
    1.3195   -0.8126   -1.1688 C   0  0  2  0  0  0  0  0  0  0  0  0
    2.1601   -1.5798   -0.2801 O   0  0  0  0  0  0  0  0  0  0  0  0
    1.4507   -2.7878   -0.0726 C   0  0  2  0  0  0  0  0  0  0  0  0
    2.1579   -0.3946   -2.2320 O   0  0  0  0  0  0  0  0  0  0  0  0
    1.5488    0.4502   -3.2172 C   0  0  2  0  0  0  0  0  0  0  0  0
    2.6700    0.8783   -4.2045 C   0  0  0  0  0  0  0  0  0  0  0  0
    3.7974    1.5922   -3.5413 N   0  0  0  0  0  0  0  0  0  0  0  0
    3.2833   -0.3322   -4.9357 C   0  0  0  0  0  0  0  0  0  0  0  0
    4.3472    0.1256   -5.7751 O   0  0  0  0  0  0  0  0  0  0  0  0
    0.8173    1.6640   -2.5966 C   0  0  2  0  0  0  0  0  0  0  0  0
    1.7339    2.6282   -2.0532 O   0  0  0  0  0  0  0  0  0  0  0  0
   -0.1042    1.2246   -1.4615 C   0  0  2  0  0  0  0  0  0  0  0  0
   -0.6448    2.3950   -0.8224 O   0  0  0  0  0  0  0  0  0  0  0  0
    0.6632    0.3836   -0.4345 C   0  0  1  0  0  0  0  0  0  0  0  0
   -0.2907   -0.0289    0.5736 O   0  0  0  0  0  0  0  0  0  0  0  0
    5.2908   -4.4132    0.0442 C   0  0  2  0  0  0  0  0  0  0  0  0
    5.0356   -3.6572    1.2404 O   0  0  0  0  0  0  0  0  0  0  0  0
    9.5146   -4.6505    1.6249 H   0  0  0  0  0  0  0  0  0  0  0  0
    9.1692   -3.2937    0.5496 H   0  0  0  0  0  0  0  0  0  0  0  0
    9.4848   -4.9201   -0.1163 H   0  0  0  0  0  0  0  0  0  0  0  0
    7.4901   -5.6987    0.8844 H   0  0  0  0  0  0  0  0  0  0  0  0
    6.9454   -3.0983   -0.3940 H   0  0  0  0  0  0  0  0  0  0  0  0
    7.0387   -5.9278   -1.5802 H   0  0  0  0  0  0  0  0  0  0  0  0
    8.1771   -4.6261   -1.9269 H   0  0  0  0  0  0  0  0  0  0  0  0
    6.3703   -3.2243   -2.8916 H   0  0  0  0  0  0  0  0  0  0  0  0
    5.8565   -4.6840   -4.7197 H   0  0  0  0  0  0  0  0  0  0  0  0
    7.4464   -4.5585   -4.3915 H   0  0  0  0  0  0  0  0  0  0  0  0
    4.5567   -5.6542   -2.4465 H   0  0  0  0  0  0  0  0  0  0  0  0
    3.0203   -4.2788   -3.2639 H   0  0  0  0  0  0  0  0  0  0  0  0
    4.2065   -2.9080   -1.1269 H   0  0  0  0  0  0  0  0  0  0  0  0
    2.7861   -4.0034    1.1238 H   0  0  0  0  0  0  0  0  0  0  0  0
   -0.6036   -5.8755   -0.1045 H   0  0  0  0  0  0  0  0  0  0  0  0
    1.3460   -5.6807   -2.4172 H   0  0  0  0  0  0  0  0  0  0  0  0
    1.4949   -6.9662   -1.2087 H   0  0  0  0  0  0  0  0  0  0  0  0
    0.1611   -7.3765   -3.1095 H   0  0  0  0  0  0  0  0  0  0  0  0
   -1.1028   -3.6078   -0.3723 H   0  0  0  0  0  0  0  0  0  0  0  0
   -1.4802   -3.2979   -2.5910 H   0  0  0  0  0  0  0  0  0  0  0  0
    1.3218   -3.2518   -2.2056 H   0  0  0  0  0  0  0  0  0  0  0  0
    0.7606   -2.5947    0.7611 H   0  0  0  0  0  0  0  0  0  0  0  0
    0.8158   -0.1575   -3.7637 H   0  0  0  0  0  0  0  0  0  0  0  0
    2.2566    1.5640   -4.9538 H   0  0  0  0  0  0  0  0  0  0  0  0
    4.1326    0.9817   -2.7886 H   0  0  0  0  0  0  0  0  0  0  0  0
    3.3728    2.3714   -3.0141 H   0  0  0  0  0  0  0  0  0  0  0  0
    2.5417   -0.8327   -5.5647 H   0  0  0  0  0  0  0  0  0  0  0  0
    3.7023   -1.0647   -4.2376 H   0  0  0  0  0  0  0  0  0  0  0  0
    4.7569    0.8507   -5.2542 H   0  0  0  0  0  0  0  0  0  0  0  0
    0.2450    2.1907   -3.3690 H   0  0  0  0  0  0  0  0  0  0  0  0
    1.1694    3.2549   -1.5504 H   0  0  0  0  0  0  0  0  0  0  0  0
   -0.9590    0.6644   -1.8592 H   0  0  0  0  0  0  0  0  0  0  0  0
   -1.0050    2.0871    0.0349 H   0  0  0  0  0  0  0  0  0  0  0  0
    1.4176    0.9878    0.0812 H   0  0  0  0  0  0  0  0  0  0  0  0
   -0.8321   -0.7340    0.1713 H   0  0  0  0  0  0  0  0  0  0  0  0
    5.1163   -5.4666    0.2988 H   0  0  0  0  0  0  0  0  0  0  0  0
    5.8470   -3.7694    1.7807 H   0  0  0  0  0  0  0  0  0  0  0  0
  1  2  1  0  0  0  0
  1 37  1  0  0  0  0
  1 38  1  0  0  0  0
  1 39  1  0  0  0  0
  2 40  1  0  0  0  0
  3  4  1  0  0  0  0
  3 35  1  0  0  0  0
  3  2  1  0  0  0  0
  3 41  1  6  0  0  0
  4  5  1  0  0  0  0
  4 42  1  0  0  0  0
  4 43  1  0  0  0  0
  5  6  1  0  0  0  0
  5  7  1  0  0  0  0
  5 44  1  6  0  0  0
  6 45  1  0  0  0  0
  6 46  1  0  0  0  0
  7  9  1  0  0  0  0
  7  8  1  0  0  0  0
  7 47  1  1  0  0  0
  8 48  1  0  0  0  0
  9 10  1  0  0  0  0
  9 35  1  0  0  0  0
  9 49  1  6  0  0  0
 10 11  1  0  0  0  0
 11 12  1  0  0  0  0
 11 22  1  0  0  0  0
 11 50  1  1  0  0  0
 12 13  1  0  0  0  0
 13 16  1  0  0  0  0
 13 14  1  0  0  0  0
 13 51  1  1  0  0  0
 14 15  1  0  0  0  0
 14 52  1  0  0  0  0
 14 53  1  0  0  0  0
 15 54  1  0  0  0  0
 16 18  1  0  0  0  0
 16 17  1  0  0  0  0
 16 55  1  1  0  0  0
 17 56  1  0  0  0  0
 18 19  1  0  0  0  0
 18 22  1  0  0  0  0
 18 57  1  1  0  0  0
 20 19  1  1  0  0  0
 20 21  1  0  0  0  0
 20 23  1  0  0  0  0
 20 33  1  0  0  0  0
 21 22  1  0  0  0  0
 22 58  1  1  0  0  0
 23 24  1  0  0  0  0
 24 25  1  0  0  0  0
 24 29  1  0  0  0  0
 24 59  1  6  0  0  0
 25 26  1  0  0  0  0
 25 27  1  0  0  0  0
 25 60  1  0  0  0  0
 26 61  1  0  0  0  0
 26 62  1  0  0  0  0
 27 28  1  0  0  0  0
 27 63  1  0  0  0  0
 27 64  1  0  0  0  0
 28 65  1  0  0  0  0
 29 30  1  0  0  0  0
 29 31  1  0  0  0  0
 29 66  1  6  0  0  0
 30 67  1  0  0  0  0
 31 32  1  0  0  0  0
 31 33  1  0  0  0  0
 31 68  1  6  0  0  0
 32 69  1  0  0  0  0
 33 34  1  0  0  0  0
 33 70  1  1  0  0  0
 34 71  1  0  0  0  0
 35 36  1  0  0  0  0
 35 72  1  1  0  0  0
 36 73  1  0  0  0  0
M  END
$$$$
