CHEBI:15436
 OpenBabel04242411533D

 98102  0  0  0  0  0  0  0  0999 V2000
    1.1174    1.0439   -0.5565 O   0  0  0  0  0  0  0  0  0  0  0  0
    0.9831    0.2996   -1.5160 C   0  0  0  0  0  0  0  0  0  0  0  0
   -0.2172    0.0818   -2.1015 O   0  0  0  0  0  0  0  0  0  0  0  0
    2.0871   -0.5000   -2.1591 C   0  0  0  0  0  0  0  0  0  0  0  0
    3.4358   -0.2607   -1.4754 C   0  0  0  0  0  0  0  0  0  0  0  0
    4.5712   -0.9492   -2.1866 C   0  0  0  0  0  0  0  0  0  0  0  0
    4.8069   -2.2740   -2.1995 C   0  0  0  0  0  0  0  0  0  0  0  0
    4.0808   -3.3953   -1.5530 C   0  0  0  0  0  0  0  0  0  0  0  0
    3.1593   -4.0771   -2.5409 C   0  0  0  0  0  0  0  0  0  0  0  0
    2.5973   -3.5759   -3.5008 O   0  0  0  0  0  0  0  0  0  0  0  0
    2.9177   -5.3599   -2.2060 O   0  0  0  0  0  0  0  0  0  0  0  0
    5.9888   -2.3603   -3.0786 C   0  0  0  0  0  0  0  0  0  0  0  0
    6.6500   -3.6713   -3.2892 C   0  0  0  0  0  0  0  0  0  0  0  0
    7.4775   -3.8767   -4.3207 C   0  0  0  0  0  0  0  0  0  0  0  0
    7.8157   -3.0073   -5.3177 N   0  0  0  0  0  0  0  0  0  0  0  0
    8.6816   -3.5308   -6.2311 C   0  0  0  0  0  0  0  0  0  0  0  0
    9.1747   -2.9590   -7.3350 C   0  0  0  0  0  0  0  0  0  0  0  0
    8.8169   -1.5751   -7.7152 C   0  0  0  0  0  0  0  0  0  0  0  0
    8.4509   -0.6358   -6.8910 N   0  0  0  0  0  0  0  0  0  0  0  0
    8.3826    0.5139   -7.6429 C   0  0  0  0  0  0  0  0  0  0  0  0
    8.1558    1.7515   -7.1716 C   0  0  0  0  0  0  0  0  0  0  0  0
    7.8201    2.0741   -5.8266 C   0  0  0  0  0  0  0  0  0  0  0  0
    7.1101    1.1661   -5.0837 N   0  0  0  0  0  0  0  0  0  0  0  0
    6.6913    1.7340   -3.9120 C   0  0  0  0  0  0  0  0  0  0  0  0
    5.7296    1.0651   -3.1049 C   0  0  0  0  0  0  0  0  0  0  0  0
    5.5740   -0.2644   -2.9950 C   0  0  0  0  0  0  0  0  0  0  0  0
    6.3857   -1.2190   -3.5665 N   0  0  0  0  0  0  0  0  0  0  0  0
    7.3198    2.9701   -3.7961 C   0  0  0  0  0  0  0  0  0  0  0  0
    7.2740    3.8373   -2.5672 C   0  0  0  0  0  0  0  0  0  0  0  0
    5.9530    4.4965   -2.2250 C   0  0  0  0  0  0  0  0  0  0  0  0
    5.7912    5.1024   -1.1700 O   0  0  0  0  0  0  0  0  0  0  0  0
    4.9487    4.3841   -3.1163 O   0  0  0  0  0  0  0  0  0  0  0  0
    8.0147    3.2101   -5.0431 C   0  0  0  0  0  0  0  0  0  0  0  0
    8.8438    4.4014   -5.4673 C   0  0  0  0  0  0  0  0  0  0  0  0
    8.3126    5.7929   -5.1599 C   0  0  0  0  0  0  0  0  0  0  0  0
    6.9429    6.0146   -5.7266 C   0  0  0  0  0  0  0  0  0  0  0  0
    5.9101    5.4946   -5.3357 O   0  0  0  0  0  0  0  0  0  0  0  0
    6.9345    6.8795   -6.7553 O   0  0  0  0  0  0  0  0  0  0  0  0
    8.6504    0.1577   -9.0269 C   0  0  0  0  0  0  0  0  0  0  0  0
    8.5831    1.1384  -10.1614 C   0  0  0  0  0  0  0  0  0  0  0  0
    7.1596    1.6152  -10.4402 C   0  0  0  0  0  0  0  0  0  0  0  0
    7.1556    2.4695  -11.6752 C   0  0  0  0  0  0  0  0  0  0  0  0
    7.4673    3.6510  -11.6793 O   0  0  0  0  0  0  0  0  0  0  0  0
    6.8244    1.7936  -12.7964 O   0  0  0  0  0  0  0  0  0  0  0  0
    8.9260   -1.1540   -9.1254 C   0  0  0  0  0  0  0  0  0  0  0  0
    9.2360   -2.0024  -10.3048 C   0  0  0  0  0  0  0  0  0  0  0  0
    8.0023   -2.2323  -11.1530 C   0  0  0  0  0  0  0  0  0  0  0  0
    7.3130   -1.3763  -11.6899 O   0  0  0  0  0  0  0  0  0  0  0  0
    7.7222   -3.5419  -11.3093 O   0  0  0  0  0  0  0  0  0  0  0  0
    8.9593   -4.8902   -5.7481 C   0  0  0  0  0  0  0  0  0  0  0  0
    9.8931   -5.8416   -6.4311 C   0  0  0  0  0  0  0  0  0  0  0  0
   11.3382   -5.3860   -6.5852 C   0  0  0  0  0  0  0  0  0  0  0  0
   12.0867   -5.8774   -7.4217 O   0  0  0  0  0  0  0  0  0  0  0  0
   11.7698   -4.4341   -5.7334 O   0  0  0  0  0  0  0  0  0  0  0  0
    8.2246   -5.1044   -4.6254 C   0  0  0  0  0  0  0  0  0  0  0  0
    8.1036   -6.3735   -3.8347 C   0  0  0  0  0  0  0  0  0  0  0  0
    9.0464   -6.4218   -2.6377 C   0  0  0  0  0  0  0  0  0  0  0  0
    8.8505   -7.7166   -1.9026 C   0  0  0  0  0  0  0  0  0  0  0  0
    7.7983   -8.1264   -1.4418 O   0  0  0  0  0  0  0  0  0  0  0  0
    9.9808   -8.4366   -1.7973 O   0  0  0  0  0  0  0  0  0  0  0  0
   -0.1811   -0.5402   -2.8539 H   0  0  0  0  0  0  0  0  0  0  0  0
    2.1398   -0.2287   -3.2193 H   0  0  0  0  0  0  0  0  0  0  0  0
    1.8066   -1.5537   -2.0697 H   0  0  0  0  0  0  0  0  0  0  0  0
    3.3907   -0.6183   -0.4386 H   0  0  0  0  0  0  0  0  0  0  0  0
    3.6116    0.8156   -1.3860 H   0  0  0  0  0  0  0  0  0  0  0  0
    3.4652   -3.0421   -0.7191 H   0  0  0  0  0  0  0  0  0  0  0  0
    4.7866   -4.1232   -1.1425 H   0  0  0  0  0  0  0  0  0  0  0  0
    2.2732   -5.6762   -2.8751 H   0  0  0  0  0  0  0  0  0  0  0  0
    6.4634   -4.4491   -2.5628 H   0  0  0  0  0  0  0  0  0  0  0  0
    7.5493   -2.0235   -5.3011 H   0  0  0  0  0  0  0  0  0  0  0  0
    9.8672   -3.4833   -7.9773 H   0  0  0  0  0  0  0  0  0  0  0  0
    8.2158    2.5954   -7.8514 H   0  0  0  0  0  0  0  0  0  0  0  0
    6.8867    0.2237   -5.3823 H   0  0  0  0  0  0  0  0  0  0  0  0
    5.0778    1.7187   -2.5356 H   0  0  0  0  0  0  0  0  0  0  0  0
    8.0415    4.6115   -2.6095 H   0  0  0  0  0  0  0  0  0  0  0  0
    7.5265    3.1988   -1.7101 H   0  0  0  0  0  0  0  0  0  0  0  0
    5.2542    4.1269   -4.0158 H   0  0  0  0  0  0  0  0  0  0  0  0
    9.0018    4.3529   -6.5527 H   0  0  0  0  0  0  0  0  0  0  0  0
    9.8381    4.2944   -5.0161 H   0  0  0  0  0  0  0  0  0  0  0  0
    8.9984    6.5358   -5.5882 H   0  0  0  0  0  0  0  0  0  0  0  0
    8.2851    6.0182   -4.0920 H   0  0  0  0  0  0  0  0  0  0  0  0
    5.9906    6.9507   -7.0113 H   0  0  0  0  0  0  0  0  0  0  0  0
    8.9926    0.6861  -11.0737 H   0  0  0  0  0  0  0  0  0  0  0  0
    9.2394    1.9929   -9.9549 H   0  0  0  0  0  0  0  0  0  0  0  0
    6.7567    2.2216   -9.6221 H   0  0  0  0  0  0  0  0  0  0  0  0
    6.4579    0.7830  -10.5607 H   0  0  0  0  0  0  0  0  0  0  0  0
    6.6476    0.8410  -12.6460 H   0  0  0  0  0  0  0  0  0  0  0  0
    9.6487   -2.9727  -10.0155 H   0  0  0  0  0  0  0  0  0  0  0  0
    9.9995   -1.5379  -10.9377 H   0  0  0  0  0  0  0  0  0  0  0  0
    6.9332   -3.5767  -11.8908 H   0  0  0  0  0  0  0  0  0  0  0  0
    9.5046   -6.0440   -7.4365 H   0  0  0  0  0  0  0  0  0  0  0  0
    9.9386   -6.7975   -5.8994 H   0  0  0  0  0  0  0  0  0  0  0  0
   11.1002   -4.0832   -5.1132 H   0  0  0  0  0  0  0  0  0  0  0  0
    8.3024   -7.2380   -4.4808 H   0  0  0  0  0  0  0  0  0  0  0  0
    7.0644   -6.5138   -3.5116 H   0  0  0  0  0  0  0  0  0  0  0  0
    8.8637   -5.6029   -1.9336 H   0  0  0  0  0  0  0  0  0  0  0  0
   10.0888   -6.3419   -2.9687 H   0  0  0  0  0  0  0  0  0  0  0  0
    9.7187   -9.2447   -1.3065 H   0  0  0  0  0  0  0  0  0  0  0  0
  1  2  2  0  0  0  0
  2  3  1  0  0  0  0
  2  4  1  0  0  0  0
  3 61  1  0  0  0  0
  4  5  1  0  0  0  0
  4 62  1  0  0  0  0
  4 63  1  0  0  0  0
  5  6  1  0  0  0  0
  5 64  1  0  0  0  0
  5 65  1  0  0  0  0
  6  7  2  0  0  0  0
  6 26  1  0  0  0  0
  7  8  1  0  0  0  0
  7 12  1  0  0  0  0
  8  9  1  0  0  0  0
  8 66  1  0  0  0  0
  8 67  1  0  0  0  0
  9 10  2  0  0  0  0
  9 11  1  0  0  0  0
 11 68  1  0  0  0  0
 12 13  1  0  0  0  0
 12 27  2  0  0  0  0
 13 14  2  0  0  0  0
 13 69  1  0  0  0  0
 14 15  1  0  0  0  0
 14 55  1  0  0  0  0
 15 16  1  0  0  0  0
 15 70  1  0  0  0  0
 16 17  2  0  0  0  0
 16 50  1  0  0  0  0
 17 18  1  0  0  0  0
 17 71  1  0  0  0  0
 18 19  2  0  0  0  0
 18 45  1  0  0  0  0
 19 20  1  0  0  0  0
 20 21  2  0  0  0  0
 20 39  1  0  0  0  0
 21 22  1  0  0  0  0
 21 72  1  0  0  0  0
 22 23  1  0  0  0  0
 22 33  2  0  0  0  0
 23 24  1  0  0  0  0
 23 73  1  0  0  0  0
 24 25  1  0  0  0  0
 24 28  2  0  0  0  0
 25 26  2  0  0  0  0
 25 74  1  0  0  0  0
 26 27  1  0  0  0  0
 28 29  1  0  0  0  0
 28 33  1  0  0  0  0
 29 30  1  0  0  0  0
 29 75  1  0  0  0  0
 29 76  1  0  0  0  0
 30 31  2  0  0  0  0
 30 32  1  0  0  0  0
 32 77  1  0  0  0  0
 33 34  1  0  0  0  0
 34 35  1  0  0  0  0
 34 78  1  0  0  0  0
 34 79  1  0  0  0  0
 35 36  1  0  0  0  0
 35 80  1  0  0  0  0
 35 81  1  0  0  0  0
 36 37  2  0  0  0  0
 36 38  1  0  0  0  0
 38 82  1  0  0  0  0
 39 40  1  0  0  0  0
 39 45  2  0  0  0  0
 40 41  1  0  0  0  0
 40 83  1  0  0  0  0
 40 84  1  0  0  0  0
 41 42  1  0  0  0  0
 41 85  1  0  0  0  0
 41 86  1  0  0  0  0
 42 43  2  0  0  0  0
 42 44  1  0  0  0  0
 44 87  1  0  0  0  0
 45 46  1  0  0  0  0
 46 47  1  0  0  0  0
 46 88  1  0  0  0  0
 46 89  1  0  0  0  0
 47 48  2  0  0  0  0
 47 49  1  0  0  0  0
 49 90  1  0  0  0  0
 50 51  1  0  0  0  0
 50 55  2  0  0  0  0
 51 52  1  0  0  0  0
 51 91  1  0  0  0  0
 51 92  1  0  0  0  0
 52 53  2  0  0  0  0
 52 54  1  0  0  0  0
 54 93  1  0  0  0  0
 55 56  1  0  0  0  0
 56 57  1  0  0  0  0
 56 94  1  0  0  0  0
 56 95  1  0  0  0  0
 57 58  1  0  0  0  0
 57 96  1  0  0  0  0
 57 97  1  0  0  0  0
 58 59  2  0  0  0  0
 58 60  1  0  0  0  0
 60 98  1  0  0  0  0
M  END
$$$$
