CHEBI:17771
 OpenBabel04242417163D

 15 15  0  0  0  0  0  0  0  0999 V2000
    3.6712   -2.0482    0.2791 O   0  0  0  0  0  0  0  0  0  0  0  0
    3.3181   -0.8509    0.0710 C   0  0  0  0  0  0  0  0  0  0  0  0
    2.3324   -0.2121    0.5283 O   0  5  0  0  0  0  0  0  0  0  0  0
    4.2453   -0.1013   -0.8777 C   0  0  0  0  0  0  0  0  0  0  0  0
    4.0498    1.1802   -1.2293 C   0  0  0  0  0  0  0  0  0  0  0  0
    4.8726    1.9372   -2.1071 C   0  0  0  0  0  0  0  0  0  0  0  0
    6.0137    1.5393   -2.7653 C   0  0  0  0  0  0  0  0  0  0  0  0
    6.4118    2.6370   -3.4735 N   0  0  0  0  0  0  0  0  0  0  0  0
    5.5167    3.6378   -3.2234 C   0  0  0  0  0  0  0  0  0  0  0  0
    4.5727    3.2456   -2.3994 N   0  0  0  0  0  0  0  0  0  0  0  0
    5.0837   -0.6747   -1.2564 H   0  0  0  0  0  0  0  0  0  0  0  0
    3.1881    1.7008   -0.8142 H   0  0  0  0  0  0  0  0  0  0  0  0
    6.5528    0.6037   -2.7872 H   0  0  0  0  0  0  0  0  0  0  0  0
    7.2206    2.6995   -4.0737 H   0  0  0  0  0  0  0  0  0  0  0  0
    5.6023    4.6206   -3.6648 H   0  0  0  0  0  0  0  0  0  0  0  0
  1  2  2  0  0  0  0
  2  3  1  0  0  0  0
  2  4  1  0  0  0  0
  4  5  2  0  0  0  0
  4 11  1  0  0  0  0
  5  6  1  0  0  0  0
  5 12  1  0  0  0  0
  6  7  2  0  0  0  0
  6 10  1  0  0  0  0
  7  8  1  0  0  0  0
  7 13  1  0  0  0  0
  8  9  1  0  0  0  0
  8 14  1  0  0  0  0
  9 10  2  0  0  0  0
  9 15  1  0  0  0  0
M  CHG  1   3  -1
M  END
$$$$
