CHEBI:18305
 OpenBabel04252409223D

 35 36  0  0  1  0  0  0  0  0999 V2000
    2.3321    0.2113   -3.2032 O   0  0  0  0  0  0  0  0  0  0  0  0
    2.0238    1.4215   -2.5047 C   0  0  0  0  0  0  0  0  0  0  0  0
    2.6322    1.3679   -1.0991 C   0  0  1  0  0  0  0  0  0  0  0  0
    4.0600    1.4363   -1.2226 O   0  0  0  0  0  0  0  0  0  0  0  0
    4.7344    1.1770    0.0141 C   0  0  1  0  0  0  0  0  0  0  0  0
    6.1570    1.2171   -0.1691 O   0  0  0  0  0  0  0  0  0  0  0  0
    6.7348    0.2480   -0.9421 C   0  0  0  0  0  0  0  0  0  0  0  0
    6.0667   -0.7496   -1.6556 C   0  0  0  0  0  0  0  0  0  0  0  0
    6.7843   -1.6612   -2.4382 C   0  0  0  0  0  0  0  0  0  0  0  0
    8.1706   -1.5725   -2.5003 C   0  0  0  0  0  0  0  0  0  0  0  0
    8.9038   -2.4329   -3.2619 O   0  0  0  0  0  0  0  0  0  0  0  0
    8.8496   -0.5934   -1.7888 C   0  0  0  0  0  0  0  0  0  0  0  0
    8.1301    0.3159   -1.0113 C   0  0  0  0  0  0  0  0  0  0  0  0
    4.3708    2.2833    1.0315 C   0  0  2  0  0  0  0  0  0  0  0  0
    4.8884    1.9976    2.3406 O   0  0  0  0  0  0  0  0  0  0  0  0
    2.8503    2.4426    1.1389 C   0  0  1  0  0  0  0  0  0  0  0  0
    2.5277    3.6099    1.9203 O   0  0  0  0  0  0  0  0  0  0  0  0
    2.1699    2.5393   -0.2304 C   0  0  2  0  0  0  0  0  0  0  0  0
    0.7527    2.5362   -0.0562 O   0  0  0  0  0  0  0  0  0  0  0  0
    2.0666    0.3465   -4.1289 H   0  0  0  0  0  0  0  0  0  0  0  0
    0.9346    1.5144   -2.4702 H   0  0  0  0  0  0  0  0  0  0  0  0
    2.4451    2.2540   -3.0779 H   0  0  0  0  0  0  0  0  0  0  0  0
    2.3562    0.4058   -0.6466 H   0  0  0  0  0  0  0  0  0  0  0  0
    4.4533    0.1954    0.4204 H   0  0  0  0  0  0  0  0  0  0  0  0
    4.9844   -0.8347   -1.6468 H   0  0  0  0  0  0  0  0  0  0  0  0
    6.2415   -2.4195   -2.9934 H   0  0  0  0  0  0  0  0  0  0  0  0
    8.2931   -3.0296   -3.7246 H   0  0  0  0  0  0  0  0  0  0  0  0
    9.9323   -0.5307   -1.8427 H   0  0  0  0  0  0  0  0  0  0  0  0
    8.6604    1.0876   -0.4595 H   0  0  0  0  0  0  0  0  0  0  0  0
    4.8240    3.2332    0.7217 H   0  0  0  0  0  0  0  0  0  0  0  0
    4.4712    2.6337    2.9523 H   0  0  0  0  0  0  0  0  0  0  0  0
    2.4283    1.6013    1.7029 H   0  0  0  0  0  0  0  0  0  0  0  0
    2.9174    4.3883    1.4807 H   0  0  0  0  0  0  0  0  0  0  0  0
    2.4365    3.4942   -0.7002 H   0  0  0  0  0  0  0  0  0  0  0  0
    0.5658    3.0915    0.7270 H   0  0  0  0  0  0  0  0  0  0  0  0
  1  2  1  0  0  0  0
  1 20  1  0  0  0  0
  2 21  1  0  0  0  0
  2 22  1  0  0  0  0
  3  4  1  0  0  0  0
  3 18  1  0  0  0  0
  3  2  1  0  0  0  0
  3 23  1  1  0  0  0
  4  5  1  0  0  0  0
  5 14  1  0  0  0  0
  5  6  1  0  0  0  0
  5 24  1  1  0  0  0
  6  7  1  0  0  0  0
  7  8  1  0  0  0  0
  7 13  2  0  0  0  0
  8  9  2  0  0  0  0
  8 25  1  0  0  0  0
  9 10  1  0  0  0  0
  9 26  1  0  0  0  0
 10 11  1  0  0  0  0
 10 12  2  0  0  0  0
 11 27  1  0  0  0  0
 12 13  1  0  0  0  0
 12 28  1  0  0  0  0
 13 29  1  0  0  0  0
 14 15  1  0  0  0  0
 14 16  1  0  0  0  0
 14 30  1  6  0  0  0
 15 31  1  0  0  0  0
 16 17  1  0  0  0  0
 16 18  1  0  0  0  0
 16 32  1  1  0  0  0
 17 33  1  0  0  0  0
 18 19  1  0  0  0  0
 18 34  1  6  0  0  0
 19 35  1  0  0  0  0
M  END
$$$$
