CHEBI:16530
 OpenBabel04242414413D

 16 15  0  0  0  0  0  0  0  0999 V2000
    1.0968   -0.1605    0.0295 C   0  0  0  0  0  0  0  0  0  0  0  0
    2.5897   -0.0211   -0.2430 C   0  0  0  0  0  0  0  0  0  0  0  0
    2.9764   -0.7290   -1.5386 C   0  0  0  0  0  0  0  0  0  0  0  0
    2.9603    1.4458   -0.3115 C   0  0  0  0  0  0  0  0  0  0  0  0
    3.0606    2.1171   -1.3364 O   0  0  0  0  0  0  0  0  0  0  0  0
    3.1959    2.1712    1.0132 C   0  0  0  0  0  0  0  0  0  0  0  0
    3.1366    1.6302    2.0979 O   0  0  0  0  0  0  0  0  0  0  0  0
    3.4758    3.4698    0.7905 O   0  0  0  0  0  0  0  0  0  0  0  0
    0.8097   -1.2148    0.0995 H   0  0  0  0  0  0  0  0  0  0  0  0
    0.5030    0.3026   -0.7667 H   0  0  0  0  0  0  0  0  0  0  0  0
    0.8191    0.3273    0.9698 H   0  0  0  0  0  0  0  0  0  0  0  0
    3.1600   -0.4824    0.5716 H   0  0  0  0  0  0  0  0  0  0  0  0
    2.4252   -0.3279   -2.3964 H   0  0  0  0  0  0  0  0  0  0  0  0
    2.7677   -1.8019   -1.4725 H   0  0  0  0  0  0  0  0  0  0  0  0
    4.0450   -0.6039   -1.7449 H   0  0  0  0  0  0  0  0  0  0  0  0
    3.4610    3.6383   -0.1822 H   0  0  0  0  0  0  0  0  0  0  0  0
  1  2  1  0  0  0  0
  1  9  1  0  0  0  0
  1 10  1  0  0  0  0
  1 11  1  0  0  0  0
  2  3  1  0  0  0  0
  2  4  1  0  0  0  0
  2 12  1  0  0  0  0
  3 13  1  0  0  0  0
  3 14  1  0  0  0  0
  3 15  1  0  0  0  0
  4  5  2  0  0  0  0
  4  6  1  0  0  0  0
  6  7  2  0  0  0  0
  6  8  1  0  0  0  0
  8 16  1  0  0  0  0
M  END
$$$$
