CHEBI:16312
 OpenBabel04242414103D

 67 70  0  0  1  0  0  0  0  0999 V2000
    5.5491   -0.2646   -1.6725 C   0  0  0  0  0  0  0  0  0  0  0  0
    4.1700   -0.3297   -2.3388 C   0  0  2  0  0  0  0  0  0  0  0  0
    3.6504    1.1072   -2.6141 C   0  0  0  0  0  0  0  0  0  0  0  0
    4.4732    1.8892   -3.6393 C   0  0  0  0  0  0  0  0  0  0  0  0
    3.8257    3.2287   -3.9046 C   0  0  0  0  0  0  0  0  0  0  0  0
    3.5716    4.0458   -3.0328 O   0  0  0  0  0  0  0  0  0  0  0  0
    3.5438    3.4535   -5.2058 O   0  0  0  0  0  0  0  0  0  0  0  0
    3.1391   -1.1096   -1.4685 C   0  0  1  0  0  0  0  0  0  0  0  0
    1.7599   -1.2169   -2.1558 C   0  0  0  0  0  0  0  0  0  0  0  0
    1.1627   -2.5653   -1.7610 C   0  0  0  0  0  0  0  0  0  0  0  0
    2.0406   -3.1050   -0.6189 C   0  0  1  0  0  0  0  0  0  0  0  0
    1.5463   -2.6314    0.7977 C   0  0  2  0  0  0  0  0  0  0  0  0
    0.2711   -3.3950    1.2550 C   0  0  2  0  0  0  0  0  0  0  0  0
   -0.8215   -3.2107    0.3663 O   0  0  0  0  0  0  0  0  0  0  0  0
   -0.2055   -2.9736    2.6455 C   0  0  0  0  0  0  0  0  0  0  0  0
    0.8947   -3.1498    3.6858 C   0  0  2  0  0  0  0  0  0  0  0  0
    0.3757   -2.8486    5.0976 C   0  0  0  0  0  0  0  0  0  0  0  0
    1.4458   -3.1266    6.1516 C   0  0  2  0  0  0  0  0  0  0  0  0
    0.9898   -2.6759    7.4227 O   0  0  0  0  0  0  0  0  0  0  0  0
    2.7674   -2.4324    5.8377 C   0  0  0  0  0  0  0  0  0  0  0  0
    3.2452   -2.6833    4.4047 C   0  0  0  0  0  0  0  0  0  0  0  0
    2.1764   -2.3415    3.3246 C   0  0  1  0  0  0  0  0  0  0  0  0
    1.9293   -0.8099    3.3495 C   0  0  0  0  0  0  0  0  0  0  0  0
    2.6540   -2.7983    1.8899 C   0  0  1  0  0  0  0  0  0  0  0  0
    3.9525   -2.1161    1.4539 C   0  0  0  0  0  0  0  0  0  0  0  0
    4.4088   -2.6856    0.1384 C   0  0  0  0  0  0  0  0  0  0  0  0
    5.5261   -3.1959    0.0431 O   0  0  0  0  0  0  0  0  0  0  0  0
    3.4489   -2.5767   -1.0458 C   0  0  2  0  0  0  0  0  0  0  0  0
    4.0037   -3.4169   -2.2196 C   0  0  0  0  0  0  0  0  0  0  0  0
    6.2560    0.3266   -2.2612 H   0  0  0  0  0  0  0  0  0  0  0  0
    5.9982   -1.2546   -1.5784 H   0  0  0  0  0  0  0  0  0  0  0  0
    5.4856    0.1819   -0.6746 H   0  0  0  0  0  0  0  0  0  0  0  0
    4.2791   -0.8412   -3.3034 H   0  0  0  0  0  0  0  0  0  0  0  0
    3.6095    1.6668   -1.6702 H   0  0  0  0  0  0  0  0  0  0  0  0
    2.6193    1.0699   -2.9845 H   0  0  0  0  0  0  0  0  0  0  0  0
    4.5506    1.3113   -4.5661 H   0  0  0  0  0  0  0  0  0  0  0  0
    5.4908    2.0892   -3.2913 H   0  0  0  0  0  0  0  0  0  0  0  0
    3.7917    2.7288   -5.8090 H   0  0  0  0  0  0  0  0  0  0  0  0
    2.9909   -0.5070   -0.5627 H   0  0  0  0  0  0  0  0  0  0  0  0
    1.8302   -1.1540   -3.2475 H   0  0  0  0  0  0  0  0  0  0  0  0
    1.1095   -0.4009   -1.8195 H   0  0  0  0  0  0  0  0  0  0  0  0
    1.2124   -3.2498   -2.6170 H   0  0  0  0  0  0  0  0  0  0  0  0
    0.1038   -2.4556   -1.5371 H   0  0  0  0  0  0  0  0  0  0  0  0
    2.0308   -4.2028   -0.6255 H   0  0  0  0  0  0  0  0  0  0  0  0
    1.2858   -1.5701    0.7060 H   0  0  0  0  0  0  0  0  0  0  0  0
    0.4873   -4.4704    1.2653 H   0  0  0  0  0  0  0  0  0  0  0  0
   -1.0984   -2.2792    0.4122 H   0  0  0  0  0  0  0  0  0  0  0  0
   -1.0812   -3.5780    2.9168 H   0  0  0  0  0  0  0  0  0  0  0  0
   -0.5690   -1.9386    2.6255 H   0  0  0  0  0  0  0  0  0  0  0  0
    1.1638   -4.2177    3.6782 H   0  0  0  0  0  0  0  0  0  0  0  0
   -0.5032   -3.4697    5.3153 H   0  0  0  0  0  0  0  0  0  0  0  0
    0.0163   -1.8158    5.1809 H   0  0  0  0  0  0  0  0  0  0  0  0
    1.6166   -4.2073    6.2238 H   0  0  0  0  0  0  0  0  0  0  0  0
    0.1485   -3.1253    7.6124 H   0  0  0  0  0  0  0  0  0  0  0  0
    3.5327   -2.7783    6.5442 H   0  0  0  0  0  0  0  0  0  0  0  0
    2.6785   -1.3554    6.0261 H   0  0  0  0  0  0  0  0  0  0  0  0
    3.5320   -3.7393    4.3120 H   0  0  0  0  0  0  0  0  0  0  0  0
    4.1580   -2.0975    4.2497 H   0  0  0  0  0  0  0  0  0  0  0  0
    1.5122   -0.4668    4.3000 H   0  0  0  0  0  0  0  0  0  0  0  0
    1.2361   -0.4831    2.5706 H   0  0  0  0  0  0  0  0  0  0  0  0
    2.8640   -0.2565    3.2091 H   0  0  0  0  0  0  0  0  0  0  0  0
    2.8688   -3.8770    1.9511 H   0  0  0  0  0  0  0  0  0  0  0  0
    4.7531   -2.3010    2.1771 H   0  0  0  0  0  0  0  0  0  0  0  0
    3.8526   -1.0329    1.3541 H   0  0  0  0  0  0  0  0  0  0  0  0
    5.0250   -3.1236   -2.4839 H   0  0  0  0  0  0  0  0  0  0  0  0
    3.4028   -3.3240   -3.1292 H   0  0  0  0  0  0  0  0  0  0  0  0
    4.0394   -4.4797   -1.9526 H   0  0  0  0  0  0  0  0  0  0  0  0
  1  2  1  0  0  0  0
  1 30  1  0  0  0  0
  1 31  1  0  0  0  0
  1 32  1  0  0  0  0
  2  3  1  0  0  0  0
  2 33  1  6  0  0  0
  3  4  1  0  0  0  0
  3 34  1  0  0  0  0
  3 35  1  0  0  0  0
  4  5  1  0  0  0  0
  4 36  1  0  0  0  0
  4 37  1  0  0  0  0
  5  6  2  0  0  0  0
  5  7  1  0  0  0  0
  7 38  1  0  0  0  0
  8  9  1  0  0  0  0
  8 28  1  0  0  0  0
  8  2  1  0  0  0  0
  8 39  1  1  0  0  0
  9 10  1  0  0  0  0
  9 40  1  0  0  0  0
  9 41  1  0  0  0  0
 10 11  1  0  0  0  0
 10 42  1  0  0  0  0
 10 43  1  0  0  0  0
 11 12  1  0  0  0  0
 11 28  1  0  0  0  0
 11 44  1  1  0  0  0
 12 13  1  0  0  0  0
 12 24  1  0  0  0  0
 12 45  1  1  0  0  0
 13 15  1  0  0  0  0
 13 14  1  0  0  0  0
 13 46  1  1  0  0  0
 14 47  1  0  0  0  0
 15 16  1  0  0  0  0
 15 48  1  0  0  0  0
 15 49  1  0  0  0  0
 16 17  1  0  0  0  0
 16 22  1  0  0  0  0
 16 50  1  6  0  0  0
 17 18  1  0  0  0  0
 17 51  1  0  0  0  0
 17 52  1  0  0  0  0
 18 20  1  0  0  0  0
 18 19  1  0  0  0  0
 18 53  1  1  0  0  0
 19 54  1  0  0  0  0
 20 21  1  0  0  0  0
 20 55  1  0  0  0  0
 20 56  1  0  0  0  0
 21 22  1  0  0  0  0
 21 57  1  0  0  0  0
 21 58  1  0  0  0  0
 22 24  1  0  0  0  0
 22 23  1  6  0  0  0
 23 59  1  0  0  0  0
 23 60  1  0  0  0  0
 23 61  1  0  0  0  0
 24 25  1  0  0  0  0
 24 62  1  6  0  0  0
 25 26  1  0  0  0  0
 25 63  1  0  0  0  0
 25 64  1  0  0  0  0
 26 28  1  0  0  0  0
 26 27  2  0  0  0  0
 28 29  1  6  0  0  0
 29 65  1  0  0  0  0
 29 66  1  0  0  0  0
 29 67  1  0  0  0  0
M  END
$$$$
