CHEBI:15525
 OpenBabel04242412353D

131133  0  0  1  0  0  0  0  0999 V2000
   36.2796    7.1709   22.3481 C   0  0  0  0  0  0  0  0  0  0  0  0
   35.5321    6.4205   23.4398 C   0  0  0  0  0  0  0  0  0  0  0  0
   34.1798    7.0690   23.7418 C   0  0  0  0  0  0  0  0  0  0  0  0
   33.5071    6.4196   24.9553 C   0  0  0  0  0  0  0  0  0  0  0  0
   32.1916    7.0954   25.3652 C   0  0  0  0  0  0  0  0  0  0  0  0
   32.4055    8.4972   25.9388 C   0  0  0  0  0  0  0  0  0  0  0  0
   31.1154    9.1339   26.4504 C   0  0  0  0  0  0  0  0  0  0  0  0
   31.3842   10.5325   27.0211 C   0  0  0  0  0  0  0  0  0  0  0  0
   30.0781   11.2191   27.4146 C   0  0  0  0  0  0  0  0  0  0  0  0
   30.3005   12.6264   27.9764 C   0  0  0  0  0  0  0  0  0  0  0  0
   28.9529   13.2907   28.2628 C   0  0  0  0  0  0  0  0  0  0  0  0
   29.0924   14.7086   28.8176 C   0  0  0  0  0  0  0  0  0  0  0  0
   27.7074   15.3259   29.0312 C   0  0  0  0  0  0  0  0  0  0  0  0
   27.7858   16.7529   29.5684 C   0  0  0  0  0  0  0  0  0  0  0  0
   26.3881   17.3451   29.7538 C   0  0  0  0  0  0  0  0  0  0  0  0
   26.4844   18.7907   30.1818 C   0  0  0  0  0  0  0  0  0  0  0  0
   27.1343   19.1764   31.1445 O   0  0  0  0  0  0  0  0  0  0  0  0
   25.6324   19.9381   29.1552 S   0  0  0  0  0  0  0  0  0  0  0  0
   27.0765   20.4707   28.1911 C   0  0  0  0  0  0  0  0  0  0  0  0
   26.6963   21.5224   27.1545 C   0  0  0  0  0  0  0  0  0  0  0  0
   27.8353   21.8649   26.3155 N   0  0  0  0  0  0  0  0  0  0  0  0
   27.6596   22.3244   25.0250 C   0  0  0  0  0  0  0  0  0  0  0  0
   26.5657   22.4286   24.4898 O   0  0  0  0  0  0  0  0  0  0  0  0
   28.9627   22.6911   24.3462 C   0  0  0  0  0  0  0  0  0  0  0  0
   28.7196   23.1177   22.9046 C   0  0  0  0  0  0  0  0  0  0  0  0
   29.9387   23.5624   22.2503 N   0  0  0  0  0  0  0  0  0  0  0  0
   30.8345   22.6730   21.6938 C   0  0  0  0  0  0  0  0  0  0  0  0
   30.7225   21.4529   21.7866 O   0  0  0  0  0  0  0  0  0  0  0  0
   32.0214   23.3310   20.9578 C   0  0  2  0  0  0  0  0  0  0  0  0
   32.2348   22.6683   19.7140 O   0  0  0  0  0  0  0  0  0  0  0  0
   33.3168   23.3703   21.8199 C   0  0  0  0  0  0  0  0  0  0  0  0
   34.4185   24.1023   21.0217 C   0  0  0  0  0  0  0  0  0  0  0  0
   33.0684   24.1552   23.1244 C   0  0  0  0  0  0  0  0  0  0  0  0
   33.8274   21.9599   22.2011 C   0  0  0  0  0  0  0  0  0  0  0  0
   34.2047   21.1987   21.0663 O   0  0  0  0  0  0  0  0  0  0  0  0
   34.4636   19.6284   21.2580 P   0  0  0  0  0  0  0  0  0  0  0  0
   33.2460   18.7857   21.4502 O   0  0  0  0  0  0  0  0  0  0  0  0
   35.2316   19.2380   19.9061 O   0  0  0  0  0  0  0  0  0  0  0  0
   35.5864   19.4215   22.3549 O   0  0  0  0  0  0  0  0  0  0  0  0
   35.2485   19.1129   23.8767 P   0  0  0  0  0  0  0  0  0  0  0  0
   34.5889   20.2201   24.6290 O   0  0  0  0  0  0  0  0  0  0  0  0
   34.3748   17.7727   23.8251 O   0  0  0  0  0  0  0  0  0  0  0  0
   36.6522   18.6150   24.4782 O   0  0  0  0  0  0  0  0  0  0  0  0
   37.3353   17.5635   23.8030 C   0  0  0  0  0  0  0  0  0  0  0  0
   38.3722   16.9537   24.7396 C   0  0  1  0  0  0  0  0  0  0  0  0
   37.7026   16.3213   25.8537 O   0  0  0  0  0  0  0  0  0  0  0  0
   38.3812   15.0724   26.1535 C   0  0  1  0  0  0  0  0  0  0  0  0
   37.4207   14.0029   25.9572 N   0  0  0  0  0  0  0  0  0  0  0  0
   36.0868   14.0842   26.2880 C   0  0  0  0  0  0  0  0  0  0  0  0
   35.4765   12.9229   26.1883 N   0  0  0  0  0  0  0  0  0  0  0  0
   36.4548   12.0535   25.7609 C   0  0  0  0  0  0  0  0  0  0  0  0
   36.4471   10.6723   25.5180 C   0  0  0  0  0  0  0  0  0  0  0  0
   35.3283    9.8842   25.7242 N   0  0  0  0  0  0  0  0  0  0  0  0
   37.5863   10.0715   25.1144 N   0  0  0  0  0  0  0  0  0  0  0  0
   38.6855   10.8355   24.9618 C   0  0  0  0  0  0  0  0  0  0  0  0
   38.8199   12.1559   25.1925 N   0  0  0  0  0  0  0  0  0  0  0  0
   37.6642   12.7065   25.5935 C   0  0  0  0  0  0  0  0  0  0  0  0
   39.6508   15.0708   25.2930 C   0  0  2  0  0  0  0  0  0  0  0  0
   40.6996   15.7838   25.9806 O   0  0  0  0  0  0  0  0  0  0  0  0
   39.2029   15.8611   24.0763 C   0  0  2  0  0  0  0  0  0  0  0  0
   40.3059   16.3720   23.3457 O   0  0  0  0  0  0  0  0  0  0  0  0
   40.9705   15.3962   22.2639 P   0  0  0  0  0  0  0  0  0  0  0  0
   41.3618   14.0476   22.7519 O   0  0  0  0  0  0  0  0  0  0  0  0
   39.9600   15.3757   21.0347 O   0  0  0  0  0  0  0  0  0  0  0  0
   42.2045   16.2235   21.6915 O   0  0  0  0  0  0  0  0  0  0  0  0
   37.2284    6.6724   22.1263 H   0  0  0  0  0  0  0  0  0  0  0  0
   36.5033    8.1959   22.6623 H   0  0  0  0  0  0  0  0  0  0  0  0
   35.6925    7.2148   21.4256 H   0  0  0  0  0  0  0  0  0  0  0  0
   36.1520    6.4052   24.3440 H   0  0  0  0  0  0  0  0  0  0  0  0
   35.3826    5.3799   23.1301 H   0  0  0  0  0  0  0  0  0  0  0  0
   33.5247    6.9799   22.8669 H   0  0  0  0  0  0  0  0  0  0  0  0
   34.3309    8.1376   23.9137 H   0  0  0  0  0  0  0  0  0  0  0  0
   34.1959    6.4239   25.8092 H   0  0  0  0  0  0  0  0  0  0  0  0
   33.3010    5.3676   24.7228 H   0  0  0  0  0  0  0  0  0  0  0  0
   31.7061    6.4703   26.1245 H   0  0  0  0  0  0  0  0  0  0  0  0
   31.5125    7.1409   24.5058 H   0  0  0  0  0  0  0  0  0  0  0  0
   32.8194    9.1477   25.1623 H   0  0  0  0  0  0  0  0  0  0  0  0
   33.1304    8.4457   26.7596 H   0  0  0  0  0  0  0  0  0  0  0  0
   30.6684    8.5005   27.2257 H   0  0  0  0  0  0  0  0  0  0  0  0
   30.3934    9.2016   25.6279 H   0  0  0  0  0  0  0  0  0  0  0  0
   31.9079   11.1433   26.2754 H   0  0  0  0  0  0  0  0  0  0  0  0
   32.0430   10.4549   27.8946 H   0  0  0  0  0  0  0  0  0  0  0  0
   29.5539   10.6086   28.1600 H   0  0  0  0  0  0  0  0  0  0  0  0
   29.4270   11.2803   26.5339 H   0  0  0  0  0  0  0  0  0  0  0  0
   30.8662   13.2310   27.2573 H   0  0  0  0  0  0  0  0  0  0  0  0
   30.8952   12.5715   28.8960 H   0  0  0  0  0  0  0  0  0  0  0  0
   28.3897   12.6766   28.9764 H   0  0  0  0  0  0  0  0  0  0  0  0
   28.3660   13.3237   27.3363 H   0  0  0  0  0  0  0  0  0  0  0  0
   29.6707   15.3265   28.1202 H   0  0  0  0  0  0  0  0  0  0  0  0
   29.6415   14.6856   29.7664 H   0  0  0  0  0  0  0  0  0  0  0  0
   27.1335   14.7045   29.7295 H   0  0  0  0  0  0  0  0  0  0  0  0
   27.1618   15.3272   28.0793 H   0  0  0  0  0  0  0  0  0  0  0  0
   28.3643   17.3780   28.8768 H   0  0  0  0  0  0  0  0  0  0  0  0
   28.3229   16.7620   30.5247 H   0  0  0  0  0  0  0  0  0  0  0  0
   25.8325   16.7998   30.5249 H   0  0  0  0  0  0  0  0  0  0  0  0
   25.8214   17.2553   28.8200 H   0  0  0  0  0  0  0  0  0  0  0  0
   27.5074   19.5961   27.6909 H   0  0  0  0  0  0  0  0  0  0  0  0
   27.8384   20.8716   28.8688 H   0  0  0  0  0  0  0  0  0  0  0  0
   26.3648   22.4488   27.6375 H   0  0  0  0  0  0  0  0  0  0  0  0
   25.8814   21.1630   26.5156 H   0  0  0  0  0  0  0  0  0  0  0  0
   28.7307   22.0278   26.7598 H   0  0  0  0  0  0  0  0  0  0  0  0
   29.6367   21.8277   24.3825 H   0  0  0  0  0  0  0  0  0  0  0  0
   29.4306   23.5082   24.9078 H   0  0  0  0  0  0  0  0  0  0  0  0
   28.0163   23.9570   22.8641 H   0  0  0  0  0  0  0  0  0  0  0  0
   28.2884   22.2931   22.3251 H   0  0  0  0  0  0  0  0  0  0  0  0
   30.0131   24.5444   22.0154 H   0  0  0  0  0  0  0  0  0  0  0  0
   31.7333   24.3572   20.6992 H   0  0  0  0  0  0  0  0  0  0  0  0
   32.4124   21.7332   19.9316 H   0  0  0  0  0  0  0  0  0  0  0  0
   34.1136   25.1277   20.7837 H   0  0  0  0  0  0  0  0  0  0  0  0
   34.6463   23.5968   20.0773 H   0  0  0  0  0  0  0  0  0  0  0  0
   35.3495   24.1595   21.5972 H   0  0  0  0  0  0  0  0  0  0  0  0
   32.6620   25.1511   22.9173 H   0  0  0  0  0  0  0  0  0  0  0  0
   33.9995   24.2875   23.6876 H   0  0  0  0  0  0  0  0  0  0  0  0
   32.3668   23.6325   23.7836 H   0  0  0  0  0  0  0  0  0  0  0  0
   33.0721   21.4107   22.7716 H   0  0  0  0  0  0  0  0  0  0  0  0
   34.7161   22.0611   22.8336 H   0  0  0  0  0  0  0  0  0  0  0  0
   34.6768   18.6757   19.3353 H   0  0  0  0  0  0  0  0  0  0  0  0
   33.4513   17.9384   23.5378 H   0  0  0  0  0  0  0  0  0  0  0  0
   37.8145   17.9766   22.9102 H   0  0  0  0  0  0  0  0  0  0  0  0
   36.6142   16.7975   23.4995 H   0  0  0  0  0  0  0  0  0  0  0  0
   39.0031   17.7525   25.1488 H   0  0  0  0  0  0  0  0  0  0  0  0
   38.6209   15.0754   27.2229 H   0  0  0  0  0  0  0  0  0  0  0  0
   35.6255   15.0108   26.6108 H   0  0  0  0  0  0  0  0  0  0  0  0
   34.6444   10.3165   26.3361 H   0  0  0  0  0  0  0  0  0  0  0  0
   35.5673    8.9170   25.8966 H   0  0  0  0  0  0  0  0  0  0  0  0
   39.5761   10.3185   24.6160 H   0  0  0  0  0  0  0  0  0  0  0  0
   40.0688   14.0989   25.0460 H   0  0  0  0  0  0  0  0  0  0  0  0
   41.3816   15.9883   25.3156 H   0  0  0  0  0  0  0  0  0  0  0  0
   38.5687   15.2393   23.4308 H   0  0  0  0  0  0  0  0  0  0  0  0
   40.2357   14.7283   20.3602 H   0  0  0  0  0  0  0  0  0  0  0  0
   43.0443   15.9360   22.0957 H   0  0  0  0  0  0  0  0  0  0  0  0
  1  2  1  0  0  0  0
  1 66  1  0  0  0  0
  1 67  1  0  0  0  0
  1 68  1  0  0  0  0
  2  3  1  0  0  0  0
  2 69  1  0  0  0  0
  2 70  1  0  0  0  0
  3  4  1  0  0  0  0
  3 71  1  0  0  0  0
  3 72  1  0  0  0  0
  4  5  1  0  0  0  0
  4 73  1  0  0  0  0
  4 74  1  0  0  0  0
  5  6  1  0  0  0  0
  5 75  1  0  0  0  0
  5 76  1  0  0  0  0
  6  7  1  0  0  0  0
  6 77  1  0  0  0  0
  6 78  1  0  0  0  0
  7  8  1  0  0  0  0
  7 79  1  0  0  0  0
  7 80  1  0  0  0  0
  8  9  1  0  0  0  0
  8 81  1  0  0  0  0
  8 82  1  0  0  0  0
  9 10  1  0  0  0  0
  9 83  1  0  0  0  0
  9 84  1  0  0  0  0
 10 11  1  0  0  0  0
 10 85  1  0  0  0  0
 10 86  1  0  0  0  0
 11 12  1  0  0  0  0
 11 87  1  0  0  0  0
 11 88  1  0  0  0  0
 12 13  1  0  0  0  0
 12 89  1  0  0  0  0
 12 90  1  0  0  0  0
 13 14  1  0  0  0  0
 13 91  1  0  0  0  0
 13 92  1  0  0  0  0
 14 15  1  0  0  0  0
 14 93  1  0  0  0  0
 14 94  1  0  0  0  0
 15 16  1  0  0  0  0
 15 95  1  0  0  0  0
 15 96  1  0  0  0  0
 16 17  2  0  0  0  0
 16 18  1  0  0  0  0
 18 19  1  0  0  0  0
 19 20  1  0  0  0  0
 19 97  1  0  0  0  0
 19 98  1  0  0  0  0
 20 21  1  0  0  0  0
 20 99  1  0  0  0  0
 20100  1  0  0  0  0
 21 22  1  0  0  0  0
 21101  1  0  0  0  0
 22 23  2  0  0  0  0
 22 24  1  0  0  0  0
 24 25  1  0  0  0  0
 24102  1  0  0  0  0
 24103  1  0  0  0  0
 25 26  1  0  0  0  0
 25104  1  0  0  0  0
 25105  1  0  0  0  0
 26 27  1  0  0  0  0
 26106  1  0  0  0  0
 27 28  2  0  0  0  0
 29 31  1  0  0  0  0
 29 30  1  0  0  0  0
 29 27  1  0  0  0  0
 29107  1  6  0  0  0
 30108  1  0  0  0  0
 31 32  1  0  0  0  0
 31 33  1  0  0  0  0
 31 34  1  0  0  0  0
 32109  1  0  0  0  0
 32110  1  0  0  0  0
 32111  1  0  0  0  0
 33112  1  0  0  0  0
 33113  1  0  0  0  0
 33114  1  0  0  0  0
 34 35  1  0  0  0  0
 34115  1  0  0  0  0
 34116  1  0  0  0  0
 35 36  1  0  0  0  0
 36 37  2  0  0  0  0
 36 38  1  0  0  0  0
 36 39  1  0  0  0  0
 38117  1  0  0  0  0
 39 40  1  0  0  0  0
 40 41  2  0  0  0  0
 40 42  1  0  0  0  0
 40 43  1  0  0  0  0
 42118  1  0  0  0  0
 43 44  1  0  0  0  0
 44119  1  0  0  0  0
 44120  1  0  0  0  0
 45 46  1  0  0  0  0
 45 60  1  0  0  0  0
 45 44  1  0  0  0  0
 45121  1  1  0  0  0
 46 47  1  0  0  0  0
 47 58  1  0  0  0  0
 47 48  1  0  0  0  0
 47122  1  1  0  0  0
 48 49  1  0  0  0  0
 48 57  1  0  0  0  0
 49 50  2  0  0  0  0
 49123  1  0  0  0  0
 50 51  1  0  0  0  0
 51 52  1  0  0  0  0
 51 57  2  0  0  0  0
 52 53  1  0  0  0  0
 52 54  2  0  0  0  0
 53124  1  0  0  0  0
 53125  1  0  0  0  0
 54 55  1  0  0  0  0
 55 56  2  0  0  0  0
 55126  1  0  0  0  0
 56 57  1  0  0  0  0
 58 59  1  0  0  0  0
 58 60  1  0  0  0  0
 58127  1  6  0  0  0
 59128  1  0  0  0  0
 60 61  1  0  0  0  0
 60129  1  6  0  0  0
 61 62  1  0  0  0  0
 62 63  2  0  0  0  0
 62 64  1  0  0  0  0
 62 65  1  0  0  0  0
 64130  1  0  0  0  0
 65131  1  0  0  0  0
M  END
$$$$
