CHEBI:16138
 OpenBabel04242413533D

 24 23  0  0  1  0  0  0  0  0999 V2000
    8.8782    5.4683   -0.3651 O   0  0  0  0  0  0  0  0  0  0  0  0
    9.1038    4.3099   -0.6780 C   0  0  0  0  0  0  0  0  0  0  0  0
    9.3946    3.9376   -1.9443 O   0  0  0  0  0  0  0  0  0  0  0  0
    9.1091    3.1690    0.3051 C   0  0  0  0  0  0  0  0  0  0  0  0
    8.2382    2.0094   -0.1553 C   0  0  1  0  0  0  0  0  0  0  0  0
    8.8193    1.4755   -1.3684 O   0  0  0  0  0  0  0  0  0  0  0  0
    6.7595    2.3481   -0.4428 C   0  0  2  0  0  0  0  0  0  0  0  0
    6.1528    1.1099   -0.8761 O   0  0  0  0  0  0  0  0  0  0  0  0
    5.9925    2.8905    0.7691 C   0  0  2  0  0  0  0  0  0  0  0  0
    6.0181    1.8923    1.8046 O   0  0  0  0  0  0  0  0  0  0  0  0
    4.5263    3.1938    0.4409 C   0  0  0  0  0  0  0  0  0  0  0  0
    3.8885    3.6289    1.6455 O   0  0  0  0  0  0  0  0  0  0  0  0
    9.4860    2.9543   -2.0203 H   0  0  0  0  0  0  0  0  0  0  0  0
    8.7719    3.5436    1.2770 H   0  0  0  0  0  0  0  0  0  0  0  0
   10.1515    2.8491    0.4190 H   0  0  0  0  0  0  0  0  0  0  0  0
    8.3007    1.1997    0.5814 H   0  0  0  0  0  0  0  0  0  0  0  0
    8.1610    0.8156   -1.6835 H   0  0  0  0  0  0  0  0  0  0  0  0
    6.6840    3.0381   -1.2902 H   0  0  0  0  0  0  0  0  0  0  0  0
    5.9695    0.6119   -0.0511 H   0  0  0  0  0  0  0  0  0  0  0  0
    6.4674    3.7903    1.1736 H   0  0  0  0  0  0  0  0  0  0  0  0
    5.3709    2.2160    2.4679 H   0  0  0  0  0  0  0  0  0  0  0  0
    3.9968    2.2980    0.1014 H   0  0  0  0  0  0  0  0  0  0  0  0
    4.4425    3.9819   -0.3131 H   0  0  0  0  0  0  0  0  0  0  0  0
    2.9746    3.8691    1.4073 H   0  0  0  0  0  0  0  0  0  0  0  0
  1  2  2  0  0  0  0
  2  3  1  0  0  0  0
  2  4  1  0  0  0  0
  3 13  1  0  0  0  0
  4  5  1  0  0  0  0
  4 14  1  0  0  0  0
  4 15  1  0  0  0  0
  5  6  1  0  0  0  0
  5 16  1  6  0  0  0
  6 17  1  0  0  0  0
  7  8  1  0  0  0  0
  7  5  1  0  0  0  0
  7 18  1  1  0  0  0
  8 19  1  0  0  0  0
  9 11  1  0  0  0  0
  9 10  1  0  0  0  0
  9  7  1  0  0  0  0
  9 20  1  1  0  0  0
 10 21  1  0  0  0  0
 11 12  1  0  0  0  0
 11 22  1  0  0  0  0
 11 23  1  0  0  0  0
 12 24  1  0  0  0  0
M  END
$$$$
