CHEBI:18211
 OpenBabel04252409113D

 25 24  0  0  0  0  0  0  0  0999 V2000
    4.6658    6.3700   -0.6346 N   0  0  0  0  0  0  0  0  0  0  0  0
    4.7722    5.0418   -0.8850 C   0  0  0  0  0  0  0  0  0  0  0  0
    5.3480    4.6074   -1.8710 O   0  0  0  0  0  0  0  0  0  0  0  0
    4.1730    4.2862    0.0785 N   0  0  0  0  0  0  0  0  0  0  0  0
    4.2119    2.8413    0.0180 C   0  0  0  0  0  0  0  0  0  0  0  0
    5.5652    2.2910    0.4675 C   0  0  0  0  0  0  0  0  0  0  0  0
    5.6509    0.7646    0.3813 C   0  0  0  0  0  0  0  0  0  0  0  0
    5.5285    0.1852   -1.0342 C   0  0  0  0  0  0  0  0  0  0  0  0
    6.5938    0.6884   -1.9495 N   0  0  0  0  0  0  0  0  0  0  0  0
    5.6173   -1.3527   -0.9914 C   0  0  0  0  0  0  0  0  0  0  0  0
    5.0440   -2.0736   -0.1896 O   0  0  0  0  0  0  0  0  0  0  0  0
    6.4035   -1.8241   -1.9948 O   0  0  0  0  0  0  0  0  0  0  0  0
    4.9982    6.9471   -1.3976 H   0  0  0  0  0  0  0  0  0  0  0  0
    3.7975    6.6817   -0.2244 H   0  0  0  0  0  0  0  0  0  0  0  0
    4.0790    4.7223    0.9846 H   0  0  0  0  0  0  0  0  0  0  0  0
    3.9884    2.5438   -1.0113 H   0  0  0  0  0  0  0  0  0  0  0  0
    3.4117    2.4676    0.6648 H   0  0  0  0  0  0  0  0  0  0  0  0
    5.7405    2.5922    1.5084 H   0  0  0  0  0  0  0  0  0  0  0  0
    6.3774    2.7446   -0.1122 H   0  0  0  0  0  0  0  0  0  0  0  0
    4.8689    0.3318    1.0188 H   0  0  0  0  0  0  0  0  0  0  0  0
    6.6040    0.4449    0.8241 H   0  0  0  0  0  0  0  0  0  0  0  0
    4.5569    0.4174   -1.4825 H   0  0  0  0  0  0  0  0  0  0  0  0
    7.4610    0.7959   -1.4117 H   0  0  0  0  0  0  0  0  0  0  0  0
    6.3542    1.6534   -2.2127 H   0  0  0  0  0  0  0  0  0  0  0  0
    6.7233   -1.0187   -2.4768 H   0  0  0  0  0  0  0  0  0  0  0  0
  1  2  1  0  0  0  0
  1 13  1  0  0  0  0
  1 14  1  0  0  0  0
  2  3  2  0  0  0  0
  2  4  1  0  0  0  0
  4  5  1  0  0  0  0
  4 15  1  0  0  0  0
  5  6  1  0  0  0  0
  5 16  1  0  0  0  0
  5 17  1  0  0  0  0
  6  7  1  0  0  0  0
  6 18  1  0  0  0  0
  6 19  1  0  0  0  0
  7  8  1  0  0  0  0
  7 20  1  0  0  0  0
  7 21  1  0  0  0  0
  8  9  1  0  0  0  0
  8 10  1  0  0  0  0
  8 22  1  0  0  0  0
  9 23  1  0  0  0  0
  9 24  1  0  0  0  0
 10 11  2  0  0  0  0
 10 12  1  0  0  0  0
 12 25  1  0  0  0  0
M  END
$$$$
