CHEBI:16432
 OpenBabel04242414253D

 45 45  0  0  1  0  0  0  0  0999 V2000
    9.7687    2.2395   -1.6727 O   0  0  0  0  0  0  0  0  0  0  0  0
    9.1492    1.1894   -1.5047 C   0  0  0  0  0  0  0  0  0  0  0  0
    7.9120    1.0699   -0.6302 C   0  0  1  0  0  0  0  0  0  0  0  0
    7.0714    0.0340   -1.1415 O   0  0  0  0  0  0  0  0  0  0  0  0
    8.3566    0.7320    0.7961 C   0  0  1  0  0  0  0  0  0  0  0  0
    8.8978   -0.6160    0.7400 O   0  0  0  0  0  0  0  0  0  0  0  0
    7.2332    0.7326    1.8699 C   0  0  2  0  0  0  0  0  0  0  0  0
    7.8588    0.2295    3.0848 O   0  0  0  0  0  0  0  0  0  0  0  0
    6.9408   -0.3596    4.0145 C   0  0  0  0  0  0  0  0  0  0  0  0
    6.5319   -1.6637    3.6051 O   0  0  0  0  0  0  0  0  0  0  0  0
    7.5976   -2.6239    3.5786 C   0  0  2  0  0  0  0  0  0  0  0  0
    7.0376   -3.9732    3.1046 C   0  0  0  0  0  0  0  0  0  0  0  0
    8.0655   -4.9265    2.8581 O   0  0  0  0  0  0  0  0  0  0  0  0
    8.2645   -2.7562    4.9574 C   0  0  1  0  0  0  0  0  0  0  0  0
    9.3715   -3.6639    4.9141 O   0  0  0  0  0  0  0  0  0  0  0  0
    8.7423   -1.3845    5.4352 C   0  0  2  0  0  0  0  0  0  0  0  0
    9.2682   -1.5174    6.7662 O   0  0  0  0  0  0  0  0  0  0  0  0
    7.5742   -0.4002    5.4244 C   0  0  1  0  0  0  0  0  0  0  0  0
    8.0465    0.8820    5.8665 O   0  0  0  0  0  0  0  0  0  0  0  0
    6.5750    2.1118    2.1491 C   0  0  2  0  0  0  0  0  0  0  0  0
    5.7339    2.5218    1.0704 O   0  0  0  0  0  0  0  0  0  0  0  0
    7.5645    3.2344    2.4888 C   0  0  0  0  0  0  0  0  0  0  0  0
    8.1998    3.6681    1.2903 O   0  0  0  0  0  0  0  0  0  0  0  0
    9.5301    0.2423   -1.9234 H   0  0  0  0  0  0  0  0  0  0  0  0
    7.3787    2.0172   -0.7074 H   0  0  0  0  0  0  0  0  0  0  0  0
    7.4663   -0.8042   -0.8240 H   0  0  0  0  0  0  0  0  0  0  0  0
    9.1918    1.3652    1.1150 H   0  0  0  0  0  0  0  0  0  0  0  0
    9.1933   -0.8016    1.6522 H   0  0  0  0  0  0  0  0  0  0  0  0
    6.4666    0.0126    1.5546 H   0  0  0  0  0  0  0  0  0  0  0  0
    6.0407    0.2569    4.0838 H   0  0  0  0  0  0  0  0  0  0  0  0
    8.3523   -2.3173    2.8467 H   0  0  0  0  0  0  0  0  0  0  0  0
    6.3426   -4.3880    3.8431 H   0  0  0  0  0  0  0  0  0  0  0  0
    6.4692   -3.8407    2.1778 H   0  0  0  0  0  0  0  0  0  0  0  0
    8.7227   -4.8378    3.5816 H   0  0  0  0  0  0  0  0  0  0  0  0
    7.5502   -3.1616    5.6854 H   0  0  0  0  0  0  0  0  0  0  0  0
    9.8480   -3.5225    5.7598 H   0  0  0  0  0  0  0  0  0  0  0  0
    9.5758   -1.0243    4.8201 H   0  0  0  0  0  0  0  0  0  0  0  0
    9.4245   -0.6001    7.0700 H   0  0  0  0  0  0  0  0  0  0  0  0
    6.8284   -0.7344    6.1567 H   0  0  0  0  0  0  0  0  0  0  0  0
    7.2736    1.4694    5.9374 H   0  0  0  0  0  0  0  0  0  0  0  0
    5.9140    2.0125    3.0145 H   0  0  0  0  0  0  0  0  0  0  0  0
    6.2237    3.2142    0.5813 H   0  0  0  0  0  0  0  0  0  0  0  0
    8.3156    2.9133    3.2163 H   0  0  0  0  0  0  0  0  0  0  0  0
    7.0209    4.0956    2.8911 H   0  0  0  0  0  0  0  0  0  0  0  0
    8.8555    4.3477    1.5348 H   0  0  0  0  0  0  0  0  0  0  0  0
  1  2  2  0  0  0  0
  2  3  1  0  0  0  0
  2 24  1  0  0  0  0
  3  4  1  0  0  0  0
  3  5  1  0  0  0  0
  3 25  1  6  0  0  0
  4 26  1  0  0  0  0
  5  6  1  0  0  0  0
  5 27  1  6  0  0  0
  6 28  1  0  0  0  0
  7  8  1  0  0  0  0
  7  5  1  0  0  0  0
  7 29  1  1  0  0  0
  8  9  1  0  0  0  0
  9 10  1  0  0  0  0
  9 18  1  0  0  0  0
  9 30  1  0  0  0  0
 10 11  1  0  0  0  0
 11 14  1  0  0  0  0
 11 12  1  0  0  0  0
 11 31  1  6  0  0  0
 12 13  1  0  0  0  0
 12 32  1  0  0  0  0
 12 33  1  0  0  0  0
 13 34  1  0  0  0  0
 14 15  1  0  0  0  0
 14 16  1  0  0  0  0
 14 35  1  1  0  0  0
 15 36  1  0  0  0  0
 16 17  1  0  0  0  0
 16 18  1  0  0  0  0
 16 37  1  6  0  0  0
 17 38  1  0  0  0  0
 18 19  1  0  0  0  0
 18 39  1  1  0  0  0
 19 40  1  0  0  0  0
 20 22  1  0  0  0  0
 20 21  1  0  0  0  0
 20  7  1  0  0  0  0
 20 41  1  1  0  0  0
 21 42  1  0  0  0  0
 22 23  1  0  0  0  0
 22 43  1  0  0  0  0
 22 44  1  0  0  0  0
 23 45  1  0  0  0  0
M  END
$$$$
