CHEBI:18184
 OpenBabel04242423413D

 32 33  0  0  0  0  0  0  0  0999 V2000
    3.9006   -1.2831    1.3405 O   0  0  0  0  0  0  0  0  0  0  0  0
    4.0875   -1.9533    0.3474 C   0  0  0  0  0  0  0  0  0  0  0  0
    3.9547   -3.2903    0.2545 O   0  0  0  0  0  0  0  0  0  0  0  0
    4.5230   -1.3688   -0.9903 C   0  0  0  0  0  0  0  0  0  0  0  0
    4.6830   -2.1682   -1.9104 O   0  0  0  0  0  0  0  0  0  0  0  0
    4.7943    0.1170   -1.0198 C   0  0  0  0  0  0  0  0  0  0  0  0
    4.6405    0.7462   -2.3877 C   0  0  0  0  0  0  0  0  0  0  0  0
    3.6811    1.7458   -2.6039 C   0  0  0  0  0  0  0  0  0  0  0  0
    3.5335    2.3297   -3.8687 C   0  0  0  0  0  0  0  0  0  0  0  0
    2.0486    3.7947   -4.0919 I   0  0  0  0  0  0  0  0  0  0  0  0
    4.3508    1.9307   -4.9357 C   0  0  0  0  0  0  0  0  0  0  0  0
    4.1599    2.4962   -6.1737 O   0  0  0  0  0  0  0  0  0  0  0  0
    5.0726    3.4346   -6.6142 C   0  0  0  0  0  0  0  0  0  0  0  0
    6.0675    4.0286   -5.8316 C   0  0  0  0  0  0  0  0  0  0  0  0
    6.9657    4.9316   -6.4072 C   0  0  0  0  0  0  0  0  0  0  0  0
    6.8581    5.2553   -7.7600 C   0  0  0  0  0  0  0  0  0  0  0  0
    7.7500    6.1297   -8.3147 O   0  0  0  0  0  0  0  0  0  0  0  0
    5.8466    4.6875   -8.5384 C   0  0  0  0  0  0  0  0  0  0  0  0
    5.6228    5.1437  -10.5659 I   0  0  0  0  0  0  0  0  0  0  0  0
    4.9540    3.7791   -7.9638 C   0  0  0  0  0  0  0  0  0  0  0  0
    5.2839    0.9037   -4.7339 C   0  0  0  0  0  0  0  0  0  0  0  0
    6.4481    0.0981   -6.2852 I   0  0  0  0  0  0  0  0  0  0  0  0
    5.4463    0.3406   -3.4617 C   0  0  0  0  0  0  0  0  0  0  0  0
    4.1683   -3.5754   -0.6668 H   0  0  0  0  0  0  0  0  0  0  0  0
    5.8123    0.2909   -0.6527 H   0  0  0  0  0  0  0  0  0  0  0  0
    4.1078    0.6112   -0.3229 H   0  0  0  0  0  0  0  0  0  0  0  0
    3.0413    2.0666   -1.7829 H   0  0  0  0  0  0  0  0  0  0  0  0
    6.1736    3.7980   -4.7759 H   0  0  0  0  0  0  0  0  0  0  0  0
    7.7423    5.3676   -5.7858 H   0  0  0  0  0  0  0  0  0  0  0  0
    8.4011    6.3953   -7.6457 H   0  0  0  0  0  0  0  0  0  0  0  0
    4.1680    3.3209   -8.5590 H   0  0  0  0  0  0  0  0  0  0  0  0
    6.1842   -0.4465   -3.3098 H   0  0  0  0  0  0  0  0  0  0  0  0
  1  2  2  0  0  0  0
  2  3  1  0  0  0  0
  2  4  1  0  0  0  0
  3 24  1  0  0  0  0
  4  5  2  0  0  0  0
  4  6  1  0  0  0  0
  6  7  1  0  0  0  0
  6 25  1  0  0  0  0
  6 26  1  0  0  0  0
  7  8  1  0  0  0  0
  7 23  2  0  0  0  0
  8  9  2  0  0  0  0
  8 27  1  0  0  0  0
  9 10  1  0  0  0  0
  9 11  1  0  0  0  0
 11 12  1  0  0  0  0
 11 21  2  0  0  0  0
 12 13  1  0  0  0  0
 13 14  1  0  0  0  0
 13 20  2  0  0  0  0
 14 15  2  0  0  0  0
 14 28  1  0  0  0  0
 15 16  1  0  0  0  0
 15 29  1  0  0  0  0
 16 17  1  0  0  0  0
 16 18  2  0  0  0  0
 17 30  1  0  0  0  0
 18 19  1  0  0  0  0
 18 20  1  0  0  0  0
 20 31  1  0  0  0  0
 21 22  1  0  0  0  0
 21 23  1  0  0  0  0
 23 32  1  0  0  0  0
M  END
$$$$
