CHEBI:16688
 OpenBabel04242415043D

 77 80  0  0  1  0  0  0  0  0999 V2000
    0.8964    0.8941   -0.4484 C   0  0  0  0  0  0  0  0  0  0  0  0
    2.3643    0.8661   -0.8918 C   0  0  2  0  0  0  0  0  0  0  0  0
    3.1519   -0.3120   -0.2328 C   0  0  2  0  0  0  0  0  0  0  0  0
    3.2364   -0.1550    1.1837 O   0  0  0  0  0  0  0  0  0  0  0  0
    2.6091   -1.7140   -0.5508 C   0  0  0  0  0  0  0  0  0  0  0  0
    3.3197   -2.8720    0.1777 C   0  0  0  0  0  0  0  0  0  0  0  0
    4.8362   -3.0396   -0.0583 C   0  0  0  0  0  0  0  0  0  0  0  0
    5.3391   -4.2672    0.7090 C   0  0  0  0  0  0  0  0  0  0  0  0
    5.1727   -3.1876   -1.5427 C   0  0  0  0  0  0  0  0  0  0  0  0
    5.5674   -1.9195    0.4381 O   0  0  0  0  0  0  0  0  0  0  0  0
    3.0714    2.2331   -0.6073 C   0  0  1  0  0  0  0  0  0  0  0  0
    4.5529    2.2320   -1.0899 C   0  0  0  0  0  0  0  0  0  0  0  0
    4.8910    3.6541   -1.5641 C   0  0  0  0  0  0  0  0  0  0  0  0
    3.7249    4.5058   -1.0608 C   0  0  1  0  0  0  0  0  0  0  0  0
    3.9659    4.7301    0.3420 O   0  0  0  0  0  0  0  0  0  0  0  0
    3.4724    5.8881   -1.6173 C   0  0  0  0  0  0  0  0  0  0  0  0
    4.3394    6.5022   -2.4394 C   0  0  0  0  0  0  0  0  0  0  0  0
    4.1867    7.9309   -2.7907 C   0  0  0  0  0  0  0  0  0  0  0  0
    4.9648    8.4373   -3.5955 O   0  0  0  0  0  0  0  0  0  0  0  0
    3.1390    8.7490   -2.0600 C   0  0  2  0  0  0  0  0  0  0  0  0
    3.7565    9.3284   -0.7753 C   0  0  0  0  0  0  0  0  0  0  0  0
    2.7527   10.1191    0.0592 C   0  0  1  0  0  0  0  0  0  0  0  0
    2.4370   11.3717   -0.5655 O   0  0  0  0  0  0  0  0  0  0  0  0
    1.4523    9.3397    0.3059 C   0  0  1  0  0  0  0  0  0  0  0  0
    0.4854   10.2059    0.9045 O   0  0  0  0  0  0  0  0  0  0  0  0
    0.8591    8.7803   -0.9892 C   0  0  0  0  0  0  0  0  0  0  0  0
    1.8516    7.9152   -1.8154 C   0  0  1  0  0  0  0  0  0  0  0  0
    1.1808    7.6506   -3.1915 C   0  0  0  0  0  0  0  0  0  0  0  0
    2.2069    6.5655   -1.0728 C   0  0  1  0  0  0  0  0  0  0  0  0
    0.9954    5.5931   -0.9973 C   0  0  0  0  0  0  0  0  0  0  0  0
    1.3199    4.1855   -0.4705 C   0  0  0  0  0  0  0  0  0  0  0  0
    2.5038    3.5523   -1.2320 C   0  0  2  0  0  0  0  0  0  0  0  0
    2.1288    3.3350   -2.7215 C   0  0  0  0  0  0  0  0  0  0  0  0
    0.3072    1.5520   -1.0905 H   0  0  0  0  0  0  0  0  0  0  0  0
    0.7924    1.2363    0.5859 H   0  0  0  0  0  0  0  0  0  0  0  0
    0.4179   -0.0841   -0.5314 H   0  0  0  0  0  0  0  0  0  0  0  0
    2.3759    0.6844   -1.9744 H   0  0  0  0  0  0  0  0  0  0  0  0
    4.1744   -0.2703   -0.6139 H   0  0  0  0  0  0  0  0  0  0  0  0
    2.3308   -0.0951    1.5336 H   0  0  0  0  0  0  0  0  0  0  0  0
    1.5606   -1.7841   -0.2430 H   0  0  0  0  0  0  0  0  0  0  0  0
    2.6282   -1.8805   -1.6337 H   0  0  0  0  0  0  0  0  0  0  0  0
    2.8116   -3.8011   -0.1139 H   0  0  0  0  0  0  0  0  0  0  0  0
    3.1391   -2.7533    1.2546 H   0  0  0  0  0  0  0  0  0  0  0  0
    4.8506   -5.1859    0.3683 H   0  0  0  0  0  0  0  0  0  0  0  0
    5.1577   -4.1551    1.7842 H   0  0  0  0  0  0  0  0  0  0  0  0
    6.4224   -4.3864    0.5906 H   0  0  0  0  0  0  0  0  0  0  0  0
    4.6270   -4.0202   -1.9984 H   0  0  0  0  0  0  0  0  0  0  0  0
    6.2460   -3.3610   -1.6834 H   0  0  0  0  0  0  0  0  0  0  0  0
    4.9418   -2.2718   -2.0973 H   0  0  0  0  0  0  0  0  0  0  0  0
    5.0452   -1.4938    1.1469 H   0  0  0  0  0  0  0  0  0  0  0  0
    3.0855    2.3629    0.4848 H   0  0  0  0  0  0  0  0  0  0  0  0
    4.7177    1.5323   -1.9170 H   0  0  0  0  0  0  0  0  0  0  0  0
    5.2143    1.9339   -0.2681 H   0  0  0  0  0  0  0  0  0  0  0  0
    4.9657    3.6648   -2.6575 H   0  0  0  0  0  0  0  0  0  0  0  0
    5.8594    3.9687   -1.1596 H   0  0  0  0  0  0  0  0  0  0  0  0
    4.8353    5.1576    0.4257 H   0  0  0  0  0  0  0  0  0  0  0  0
    5.2391    6.0348   -2.8226 H   0  0  0  0  0  0  0  0  0  0  0  0
    2.8878    9.5843   -2.7284 H   0  0  0  0  0  0  0  0  0  0  0  0
    4.5962    9.9797   -1.0502 H   0  0  0  0  0  0  0  0  0  0  0  0
    4.1773    8.5230   -0.1610 H   0  0  0  0  0  0  0  0  0  0  0  0
    3.2009   10.3819    1.0238 H   0  0  0  0  0  0  0  0  0  0  0  0
    2.2575   11.2264   -1.5097 H   0  0  0  0  0  0  0  0  0  0  0  0
    1.6358    8.5271    1.0154 H   0  0  0  0  0  0  0  0  0  0  0  0
    0.7153   11.1110    0.6101 H   0  0  0  0  0  0  0  0  0  0  0  0
    0.5070    9.6219   -1.6031 H   0  0  0  0  0  0  0  0  0  0  0  0
   -0.0529    8.2183   -0.7540 H   0  0  0  0  0  0  0  0  0  0  0  0
    1.1086    8.5740   -3.7784 H   0  0  0  0  0  0  0  0  0  0  0  0
    0.1567    7.2794   -3.0784 H   0  0  0  0  0  0  0  0  0  0  0  0
    1.7379    6.9240   -3.7912 H   0  0  0  0  0  0  0  0  0  0  0  0
    2.4541    6.8102   -0.0316 H   0  0  0  0  0  0  0  0  0  0  0  0
    0.5319    5.4722   -1.9807 H   0  0  0  0  0  0  0  0  0  0  0  0
    0.2223    6.0245   -0.3508 H   0  0  0  0  0  0  0  0  0  0  0  0
    0.4148    3.5801   -0.5625 H   0  0  0  0  0  0  0  0  0  0  0  0
    1.5335    4.2443    0.6038 H   0  0  0  0  0  0  0  0  0  0  0  0
    1.1917    2.7771   -2.8145 H   0  0  0  0  0  0  0  0  0  0  0  0
    2.8928    2.7698   -3.2649 H   0  0  0  0  0  0  0  0  0  0  0  0
    1.9937    4.2773   -3.2607 H   0  0  0  0  0  0  0  0  0  0  0  0
  1 34  1  0  0  0  0
  1 35  1  0  0  0  0
  1 36  1  0  0  0  0
  2 11  1  0  0  0  0
  2  3  1  0  0  0  0
  2  1  1  0  0  0  0
  2 37  1  6  0  0  0
  3  5  1  0  0  0  0
  3  4  1  0  0  0  0
  3 38  1  1  0  0  0
  4 39  1  0  0  0  0
  5  6  1  0  0  0  0
  5 40  1  0  0  0  0
  5 41  1  0  0  0  0
  6  7  1  0  0  0  0
  6 42  1  0  0  0  0
  6 43  1  0  0  0  0
  7  8  1  0  0  0  0
  7  9  1  0  0  0  0
  7 10  1  0  0  0  0
  8 44  1  0  0  0  0
  8 45  1  0  0  0  0
  8 46  1  0  0  0  0
  9 47  1  0  0  0  0
  9 48  1  0  0  0  0
  9 49  1  0  0  0  0
 10 50  1  0  0  0  0
 11 12  1  0  0  0  0
 11 32  1  0  0  0  0
 11 51  1  1  0  0  0
 12 13  1  0  0  0  0
 12 52  1  0  0  0  0
 12 53  1  0  0  0  0
 13 14  1  0  0  0  0
 13 54  1  0  0  0  0
 13 55  1  0  0  0  0
 14 15  1  1  0  0  0
 14 16  1  0  0  0  0
 14 32  1  0  0  0  0
 15 56  1  0  0  0  0
 16 17  2  0  0  0  0
 16 29  1  0  0  0  0
 17 18  1  0  0  0  0
 17 57  1  0  0  0  0
 18 19  2  0  0  0  0
 18 20  1  0  0  0  0
 20 21  1  0  0  0  0
 20 27  1  0  0  0  0
 20 58  1  6  0  0  0
 21 22  1  0  0  0  0
 21 59  1  0  0  0  0
 21 60  1  0  0  0  0
 22 23  1  0  0  0  0
 22 24  1  0  0  0  0
 22 61  1  1  0  0  0
 23 62  1  0  0  0  0
 24 25  1  0  0  0  0
 24 26  1  0  0  0  0
 24 63  1  1  0  0  0
 25 64  1  0  0  0  0
 26 27  1  0  0  0  0
 26 65  1  0  0  0  0
 26 66  1  0  0  0  0
 27 28  1  6  0  0  0
 27 29  1  0  0  0  0
 28 67  1  0  0  0  0
 28 68  1  0  0  0  0
 28 69  1  0  0  0  0
 29 30  1  0  0  0  0
 29 70  1  1  0  0  0
 30 31  1  0  0  0  0
 30 71  1  0  0  0  0
 30 72  1  0  0  0  0
 31 32  1  0  0  0  0
 31 73  1  0  0  0  0
 31 74  1  0  0  0  0
 32 33  1  6  0  0  0
 33 75  1  0  0  0  0
 33 76  1  0  0  0  0
 33 77  1  0  0  0  0
M  END
$$$$
