CHEBI:18029
 OpenBabel04242423263D

 48 53  0  0  0  0  0  0  0  0999 V2000
    2.1546   -0.6788    0.0189 C   0  0  0  0  0  0  0  0  0  0  0  0
    2.8071    0.5813    0.1297 O   0  0  0  0  0  0  0  0  0  0  0  0
    3.4498    0.8479    1.3145 C   0  0  0  0  0  0  0  0  0  0  0  0
    3.0503    0.2431    2.5185 C   0  0  0  0  0  0  0  0  0  0  0  0
    3.7693    0.5169    3.6596 C   0  0  0  0  0  0  0  0  0  0  0  0
    4.8574    1.3488    3.6459 C   0  0  0  0  0  0  0  0  0  0  0  0
    5.2791    1.9657    2.4829 C   0  0  0  0  0  0  0  0  0  0  0  0
    4.5433    1.7668    1.2867 C   0  0  0  0  0  0  0  0  0  0  0  0
    5.0309    2.5089    0.0848 C   0  0  0  0  0  0  0  0  0  0  0  0
    4.2145    2.8110   -1.0160 C   0  0  0  0  0  0  0  0  0  0  0  0
    4.7041    3.4727   -2.1495 C   0  0  0  0  0  0  0  0  0  0  0  0
    3.9367    3.7607   -3.2560 O   0  0  0  0  0  0  0  0  0  0  0  0
    2.5816    3.3317   -3.2576 C   0  0  0  0  0  0  0  0  0  0  0  0
    6.0490    3.9006   -2.1999 C   0  0  0  0  0  0  0  0  0  0  0  0
    6.5687    4.5736   -3.3321 C   0  0  0  0  0  0  0  0  0  0  0  0
    7.8753    5.0065   -3.3205 C   0  0  0  0  0  0  0  0  0  0  0  0
    8.6822    4.8071   -2.2353 C   0  0  0  0  0  0  0  0  0  0  0  0
    8.2259    4.1554   -1.1117 C   0  0  0  0  0  0  0  0  0  0  0  0
    6.8963    3.6674   -1.0747 C   0  0  0  0  0  0  0  0  0  0  0  0
    6.3766    2.9731    0.0591 C   0  0  0  0  0  0  0  0  0  0  0  0
    7.2265    2.7514    1.1934 N   0  0  0  0  0  0  0  0  0  0  0  0
    8.0012    1.5140    1.0331 C   0  0  0  0  0  0  0  0  0  0  0  0
    6.4840    2.8614    2.4614 C   0  0  0  0  0  0  0  0  0  0  0  0
    9.9301    5.3170   -2.4119 O   0  0  0  0  0  0  0  0  0  0  0  0
    9.8101    5.8651   -3.7406 C   0  0  0  0  0  0  0  0  0  0  0  0
    8.5072    5.6672   -4.3266 O   0  0  0  0  0  0  0  0  0  0  0  0
    5.4315    1.4627    4.8747 O   0  0  0  0  0  0  0  0  0  0  0  0
    4.5751    0.6098    5.6615 C   0  0  0  0  0  0  0  0  0  0  0  0
    3.5158    0.0048    4.8938 O   0  0  0  0  0  0  0  0  0  0  0  0
    1.9241   -0.8414   -1.0385 H   0  0  0  0  0  0  0  0  0  0  0  0
    1.2076   -0.6748    0.5673 H   0  0  0  0  0  0  0  0  0  0  0  0
    2.8006   -1.4993    0.3493 H   0  0  0  0  0  0  0  0  0  0  0  0
    2.2003   -0.4242    2.5846 H   0  0  0  0  0  0  0  0  0  0  0  0
    3.1681    2.5364   -0.9736 H   0  0  0  0  0  0  0  0  0  0  0  0
    2.5094    2.2423   -3.1731 H   0  0  0  0  0  0  0  0  0  0  0  0
    2.1425    3.6189   -4.2179 H   0  0  0  0  0  0  0  0  0  0  0  0
    2.0095    3.8322   -2.4696 H   0  0  0  0  0  0  0  0  0  0  0  0
    5.9538    4.7624   -4.2067 H   0  0  0  0  0  0  0  0  0  0  0  0
    8.8914    4.0287   -0.2637 H   0  0  0  0  0  0  0  0  0  0  0  0
    8.6163    1.5392    0.1269 H   0  0  0  0  0  0  0  0  0  0  0  0
    7.3611    0.6254    0.9895 H   0  0  0  0  0  0  0  0  0  0  0  0
    8.6872    1.3960    1.8791 H   0  0  0  0  0  0  0  0  0  0  0  0
    6.1626    3.9006    2.6110 H   0  0  0  0  0  0  0  0  0  0  0  0
    7.1645    2.6224    3.2875 H   0  0  0  0  0  0  0  0  0  0  0  0
   10.5601    5.3911   -4.3843 H   0  0  0  0  0  0  0  0  0  0  0  0
   10.0149    6.9410   -3.6961 H   0  0  0  0  0  0  0  0  0  0  0  0
    4.1305    1.2049    6.4673 H   0  0  0  0  0  0  0  0  0  0  0  0
    5.1849   -0.1853    6.1059 H   0  0  0  0  0  0  0  0  0  0  0  0
  1  2  1  0  0  0  0
  1 30  1  0  0  0  0
  1 31  1  0  0  0  0
  1 32  1  0  0  0  0
  2  3  1  0  0  0  0
  3  4  1  0  0  0  0
  3  8  2  0  0  0  0
  4  5  2  0  0  0  0
  4 33  1  0  0  0  0
  5  6  1  0  0  0  0
  5 29  1  0  0  0  0
  6  7  2  0  0  0  0
  6 27  1  0  0  0  0
  7  8  1  0  0  0  0
  7 23  1  0  0  0  0
  8  9  1  0  0  0  0
  9 10  1  0  0  0  0
  9 20  2  0  0  0  0
 10 11  2  0  0  0  0
 10 34  1  0  0  0  0
 11 12  1  0  0  0  0
 11 14  1  0  0  0  0
 12 13  1  0  0  0  0
 13 35  1  0  0  0  0
 13 36  1  0  0  0  0
 13 37  1  0  0  0  0
 14 15  1  0  0  0  0
 14 19  2  0  0  0  0
 15 16  2  0  0  0  0
 15 38  1  0  0  0  0
 16 17  1  0  0  0  0
 16 26  1  0  0  0  0
 17 18  2  0  0  0  0
 17 24  1  0  0  0  0
 18 19  1  0  0  0  0
 18 39  1  0  0  0  0
 19 20  1  0  0  0  0
 20 21  1  0  0  0  0
 21 22  1  0  0  0  0
 21 23  1  0  0  0  0
 22 40  1  0  0  0  0
 22 41  1  0  0  0  0
 22 42  1  0  0  0  0
 23 43  1  0  0  0  0
 23 44  1  0  0  0  0
 24 25  1  0  0  0  0
 25 26  1  0  0  0  0
 25 45  1  0  0  0  0
 25 46  1  0  0  0  0
 27 28  1  0  0  0  0
 28 29  1  0  0  0  0
 28 47  1  0  0  0  0
 28 48  1  0  0  0  0
M  END
$$$$
