CHEBI:16708
 OpenBabel04242415063D

 15 16  0  0  0  0  0  0  0  0999 V2000
   -1.7960    1.9707    0.1713 N   0  0  0  0  0  0  0  0  0  0  0  0
   -1.1905    0.7218    0.1069 C   0  0  0  0  0  0  0  0  0  0  0  0
   -1.9844   -0.3737    0.0637 N   0  0  0  0  0  0  0  0  0  0  0  0
   -1.3972   -1.5906    0.0079 C   0  0  0  0  0  0  0  0  0  0  0  0
   -0.0810   -1.8870   -0.0279 N   0  0  0  0  0  0  0  0  0  0  0  0
    0.6525   -0.7656    0.0002 C   0  0  0  0  0  0  0  0  0  0  0  0
    2.0132   -0.6718   -0.0283 N   0  0  0  0  0  0  0  0  0  0  0  0
    2.3359    0.6581    0.0037 C   0  0  0  0  0  0  0  0  0  0  0  0
    1.2655    1.4235    0.0534 N   0  0  0  0  0  0  0  0  0  0  0  0
    0.2020    0.5413    0.0622 C   0  0  0  0  0  0  0  0  0  0  0  0
   -2.7460    1.9486   -0.1743 H   0  0  0  0  0  0  0  0  0  0  0  0
   -1.1952    2.7232   -0.1462 H   0  0  0  0  0  0  0  0  0  0  0  0
   -2.0753   -2.4393   -0.0127 H   0  0  0  0  0  0  0  0  0  0  0  0
    2.6507   -1.4524   -0.0687 H   0  0  0  0  0  0  0  0  0  0  0  0
    3.3613    1.0043   -0.0119 H   0  0  0  0  0  0  0  0  0  0  0  0
  1  2  1  0  0  0  0
  1 11  1  0  0  0  0
  1 12  1  0  0  0  0
  2  3  1  0  0  0  0
  2 10  2  0  0  0  0
  3  4  2  0  0  0  0
  4  5  1  0  0  0  0
  4 13  1  0  0  0  0
  5  6  2  0  0  0  0
  6  7  1  0  0  0  0
  6 10  1  0  0  0  0
  7  8  1  0  0  0  0
  7 14  1  0  0  0  0
  8  9  2  0  0  0  0
  8 15  1  0  0  0  0
  9 10  1  0  0  0  0
M  END
$$$$
