CHEBI:17619
 OpenBabel04242416573D

 40 41  0  0  1  0  0  0  0  0999 V2000
   10.2104    0.4768   -0.5703 C   0  0  0  0  0  0  0  0  0  0  0  0
    9.7404    1.7981   -1.1201 C   0  0  0  0  0  0  0  0  0  0  0  0
    9.0473    2.6743   -0.1128 C   0  0  0  0  0  0  0  0  0  0  0  0
    9.9528    2.1207   -2.4119 C   0  0  0  0  0  0  0  0  0  0  0  0
    9.5081    3.3725   -3.1239 C   0  0  0  0  0  0  0  0  0  0  0  0
    9.3241    3.1546   -4.6184 C   0  0  0  0  0  0  0  0  0  0  0  0
   10.4926    3.2594   -5.4175 C   0  0  0  0  0  0  0  0  0  0  0  0
   10.4709    3.0733   -6.7939 C   0  0  0  0  0  0  0  0  0  0  0  0
    9.2801    2.7723   -7.4420 C   0  0  0  0  0  0  0  0  0  0  0  0
    8.1217    2.6620   -6.6646 C   0  0  0  0  0  0  0  0  0  0  0  0
    6.8421    2.3827   -7.0795 N   0  0  0  0  0  0  0  0  0  0  0  0
    5.9942    2.3609   -6.0137 C   0  0  0  0  0  0  0  0  0  0  0  0
    6.7221    2.6293   -4.8685 C   0  0  0  0  0  0  0  0  0  0  0  0
    6.1151    2.6878   -3.4962 C   0  0  0  0  0  0  0  0  0  0  0  0
    6.3145    1.3992   -2.6874 C   0  0  2  0  0  0  0  0  0  0  0  0
    5.6676    0.1874   -3.2928 N   0  0  0  0  0  0  0  0  0  0  0  0
    5.7510    1.5671   -1.2684 C   0  0  0  0  0  0  0  0  0  0  0  0
    5.6825    2.6081   -0.6390 O   0  0  0  0  0  0  0  0  0  0  0  0
    5.3455    0.3658   -0.7705 O   0  0  0  0  0  0  0  0  0  0  0  0
    8.0960    2.8365   -5.2734 C   0  0  0  0  0  0  0  0  0  0  0  0
   10.9244    0.6357    0.2440 H   0  0  0  0  0  0  0  0  0  0  0  0
   10.7018   -0.1390   -1.3308 H   0  0  0  0  0  0  0  0  0  0  0  0
    9.3597   -0.0938   -0.1828 H   0  0  0  0  0  0  0  0  0  0  0  0
    9.7196    2.8863    0.7250 H   0  0  0  0  0  0  0  0  0  0  0  0
    8.1646    2.1646    0.2840 H   0  0  0  0  0  0  0  0  0  0  0  0
    8.7256    3.6343   -0.5231 H   0  0  0  0  0  0  0  0  0  0  0  0
   10.4950    1.4070   -3.0329 H   0  0  0  0  0  0  0  0  0  0  0  0
   10.2706    4.1483   -2.9756 H   0  0  0  0  0  0  0  0  0  0  0  0
    8.5878    3.7757   -2.7011 H   0  0  0  0  0  0  0  0  0  0  0  0
   11.4458    3.4936   -4.9437 H   0  0  0  0  0  0  0  0  0  0  0  0
   11.3902    3.1656   -7.3669 H   0  0  0  0  0  0  0  0  0  0  0  0
    9.2568    2.6298   -8.5177 H   0  0  0  0  0  0  0  0  0  0  0  0
    6.5773    2.2253   -8.0421 H   0  0  0  0  0  0  0  0  0  0  0  0
    4.9397    2.1641   -6.1560 H   0  0  0  0  0  0  0  0  0  0  0  0
    5.0390    2.8938   -3.5878 H   0  0  0  0  0  0  0  0  0  0  0  0
    6.5148    3.5521   -2.9562 H   0  0  0  0  0  0  0  0  0  0  0  0
    7.3753    1.1662   -2.5820 H   0  0  0  0  0  0  0  0  0  0  0  0
    6.1433    0.0267   -4.1886 H   0  0  0  0  0  0  0  0  0  0  0  0
    4.7175    0.4528   -3.5730 H   0  0  0  0  0  0  0  0  0  0  0  0
    5.4631   -0.2832   -1.5098 H   0  0  0  0  0  0  0  0  0  0  0  0
  1  2  1  0  0  0  0
  1 21  1  0  0  0  0
  1 22  1  0  0  0  0
  1 23  1  0  0  0  0
  2  3  1  0  0  0  0
  2  4  2  0  0  0  0
  3 24  1  0  0  0  0
  3 25  1  0  0  0  0
  3 26  1  0  0  0  0
  4  5  1  0  0  0  0
  4 27  1  0  0  0  0
  5  6  1  0  0  0  0
  5 28  1  0  0  0  0
  5 29  1  0  0  0  0
  6  7  1  0  0  0  0
  6 20  2  0  0  0  0
  7  8  2  0  0  0  0
  7 30  1  0  0  0  0
  8  9  1  0  0  0  0
  8 31  1  0  0  0  0
  9 10  2  0  0  0  0
  9 32  1  0  0  0  0
 10 11  1  0  0  0  0
 10 20  1  0  0  0  0
 11 12  1  0  0  0  0
 11 33  1  0  0  0  0
 12 13  2  0  0  0  0
 12 34  1  0  0  0  0
 13 14  1  0  0  0  0
 13 20  1  0  0  0  0
 14 35  1  0  0  0  0
 14 36  1  0  0  0  0
 15 17  1  0  0  0  0
 15 16  1  0  0  0  0
 15 14  1  0  0  0  0
 15 37  1  1  0  0  0
 16 38  1  0  0  0  0
 16 39  1  0  0  0  0
 17 18  2  0  0  0  0
 17 19  1  0  0  0  0
 19 40  1  0  0  0  0
M  END
$$$$
