CHEBI:15393
 OpenBabel04242411483D

 29 30  0  0  1  0  0  0  0  0999 V2000
    0.9840    0.1617    0.1118 C   0  0  0  0  0  0  0  0  0  0  0  0
    2.5100    0.0721   -0.0907 C   0  0  0  0  0  0  0  0  0  0  0  0
    2.7277   -0.0982   -1.6081 C   0  0  0  0  0  0  0  0  0  0  0  0
    3.3033    1.2521    0.5335 C   0  0  2  0  0  0  0  0  0  0  0  0
    4.7798    0.8489    0.3162 C   0  0  0  0  0  0  0  0  0  0  0  0
    4.7475   -0.6796    0.4852 C   0  0  0  0  0  0  0  0  0  0  0  0
    3.2544   -0.9568    0.8152 C   0  0  2  0  0  0  0  0  0  0  0  0
    2.8843   -2.4187    0.6486 C   0  0  0  0  0  0  0  0  0  0  0  0
    2.9602   -0.4103    2.2458 C   0  0  1  0  0  0  0  0  0  0  0  0
    3.8664   -0.8784    3.2297 O   0  0  0  0  0  0  0  0  0  0  0  0
    3.0340    1.1171    2.0524 C   0  0  0  0  0  0  0  0  0  0  0  0
    0.6667    0.2869    1.1488 H   0  0  0  0  0  0  0  0  0  0  0  0
    0.4914   -0.7433   -0.2616 H   0  0  0  0  0  0  0  0  0  0  0  0
    0.5767    1.0149   -0.4433 H   0  0  0  0  0  0  0  0  0  0  0  0
    3.7724   -0.1877   -1.9122 H   0  0  0  0  0  0  0  0  0  0  0  0
    2.3171    0.7619   -2.1499 H   0  0  0  0  0  0  0  0  0  0  0  0
    2.2158   -0.9959   -1.9732 H   0  0  0  0  0  0  0  0  0  0  0  0
    3.0648    2.2433    0.1407 H   0  0  0  0  0  0  0  0  0  0  0  0
    5.4538    1.3227    1.0376 H   0  0  0  0  0  0  0  0  0  0  0  0
    5.1274    1.1226   -0.6854 H   0  0  0  0  0  0  0  0  0  0  0  0
    5.4365   -1.0183    1.2646 H   0  0  0  0  0  0  0  0  0  0  0  0
    5.0607   -1.1759   -0.4402 H   0  0  0  0  0  0  0  0  0  0  0  0
    3.0715   -2.7637   -0.3734 H   0  0  0  0  0  0  0  0  0  0  0  0
    1.8256   -2.5888    0.8697 H   0  0  0  0  0  0  0  0  0  0  0  0
    3.4711   -3.0496    1.3247 H   0  0  0  0  0  0  0  0  0  0  0  0
    1.9605   -0.7030    2.5835 H   0  0  0  0  0  0  0  0  0  0  0  0
    4.6936   -0.3740    3.1589 H   0  0  0  0  0  0  0  0  0  0  0  0
    3.8076    1.5957    2.6619 H   0  0  0  0  0  0  0  0  0  0  0  0
    2.0772    1.5822    2.3134 H   0  0  0  0  0  0  0  0  0  0  0  0
  1  2  1  0  0  0  0
  1 12  1  0  0  0  0
  1 13  1  0  0  0  0
  1 14  1  0  0  0  0
  2  4  1  0  0  0  0
  2  7  1  0  0  0  0
  2  3  1  0  0  0  0
  3 15  1  0  0  0  0
  3 16  1  0  0  0  0
  3 17  1  0  0  0  0
  4  5  1  0  0  0  0
  4 11  1  0  0  0  0
  4 18  1  6  0  0  0
  5  6  1  0  0  0  0
  5 19  1  0  0  0  0
  5 20  1  0  0  0  0
  6  7  1  0  0  0  0
  6 21  1  0  0  0  0
  6 22  1  0  0  0  0
  7  9  1  0  0  0  0
  7  8  1  6  0  0  0
  8 23  1  0  0  0  0
  8 24  1  0  0  0  0
  8 25  1  0  0  0  0
  9 11  1  0  0  0  0
  9 10  1  0  0  0  0
  9 26  1  1  0  0  0
 10 27  1  0  0  0  0
 11 28  1  0  0  0  0
 11 29  1  0  0  0  0
M  END
$$$$
