CHEBI:16718
 OpenBabel04242415073D

 47 49  0  0  1  0  0  0  0  0999 V2000
    1.2606   12.6229    0.7445 C   0  0  0  0  0  0  0  0  0  0  0  0
    1.5277   11.2316    0.8342 O   0  0  0  0  0  0  0  0  0  0  0  0
    2.5528   10.7249    0.0825 C   0  0  0  0  0  0  0  0  0  0  0  0
    2.5979    9.3261    0.0916 C   0  0  0  0  0  0  0  0  0  0  0  0
    3.5774    8.6265   -0.6181 C   0  0  0  0  0  0  0  0  0  0  0  0
    4.5503    9.3170   -1.3476 C   0  0  0  0  0  0  0  0  0  0  0  0
    5.6183    8.5735   -2.1289 C   0  0  0  0  0  0  0  0  0  0  0  0
    6.5095    7.6005   -1.2957 C   0  0  1  0  0  0  0  0  0  0  0  0
    7.5648    6.8269   -2.1007 C   0  0  0  0  0  0  0  0  0  0  0  0
    7.4288    6.5864   -3.4758 C   0  0  0  0  0  0  0  0  0  0  0  0
    8.3886    5.8432   -4.1575 C   0  0  0  0  0  0  0  0  0  0  0  0
    8.2159    5.6518   -5.5028 O   0  0  0  0  0  0  0  0  0  0  0  0
    9.5000    5.3005   -3.5106 C   0  0  0  0  0  0  0  0  0  0  0  0
   10.3585    4.5989   -4.3165 O   0  0  0  0  0  0  0  0  0  0  0  0
   11.5054    4.0381   -3.6878 C   0  0  0  0  0  0  0  0  0  0  0  0
    9.6403    5.5138   -2.1430 C   0  0  0  0  0  0  0  0  0  0  0  0
    8.6803    6.2647   -1.4342 C   0  0  0  0  0  0  0  0  0  0  0  0
    8.9161    6.5226    0.0377 C   0  0  0  0  0  0  0  0  0  0  0  0
    7.7454    7.2205    0.7382 C   0  0  0  0  0  0  0  0  0  0  0  0
    7.0821    8.2427   -0.0811 N   0  0  0  0  0  0  0  0  0  0  0  0
    7.9599    9.3778   -0.3615 C   0  0  0  0  0  0  0  0  0  0  0  0
    4.5053   10.7184   -1.3647 C   0  0  0  0  0  0  0  0  0  0  0  0
    3.5225   11.4173   -0.6494 C   0  0  0  0  0  0  0  0  0  0  0  0
    3.5517   12.7848   -0.6829 O   0  0  0  0  0  0  0  0  0  0  0  0
    0.3417   12.8182    1.3065 H   0  0  0  0  0  0  0  0  0  0  0  0
    1.0776   12.9319   -0.2898 H   0  0  0  0  0  0  0  0  0  0  0  0
    2.0561   13.2088    1.2149 H   0  0  0  0  0  0  0  0  0  0  0  0
    1.8548    8.7723    0.6612 H   0  0  0  0  0  0  0  0  0  0  0  0
    3.5713    7.5400   -0.5875 H   0  0  0  0  0  0  0  0  0  0  0  0
    6.2540    9.2877   -2.6684 H   0  0  0  0  0  0  0  0  0  0  0  0
    5.0808    8.0117   -2.9039 H   0  0  0  0  0  0  0  0  0  0  0  0
    5.8218    6.8203   -0.9356 H   0  0  0  0  0  0  0  0  0  0  0  0
    6.5859    6.9627   -4.0459 H   0  0  0  0  0  0  0  0  0  0  0  0
    8.9859    5.1179   -5.7799 H   0  0  0  0  0  0  0  0  0  0  0  0
   11.2191    3.2999   -2.9314 H   0  0  0  0  0  0  0  0  0  0  0  0
   12.1423    4.8189   -3.2589 H   0  0  0  0  0  0  0  0  0  0  0  0
   12.0872    3.5194   -4.4559 H   0  0  0  0  0  0  0  0  0  0  0  0
   10.4897    5.1183   -1.5952 H   0  0  0  0  0  0  0  0  0  0  0  0
    9.8137    7.1471    0.1303 H   0  0  0  0  0  0  0  0  0  0  0  0
    9.1182    5.5730    0.5477 H   0  0  0  0  0  0  0  0  0  0  0  0
    8.0884    7.6546    1.6858 H   0  0  0  0  0  0  0  0  0  0  0  0
    6.9994    6.4671    1.0259 H   0  0  0  0  0  0  0  0  0  0  0  0
    8.3564    9.7890    0.5739 H   0  0  0  0  0  0  0  0  0  0  0  0
    7.4134   10.1969   -0.8371 H   0  0  0  0  0  0  0  0  0  0  0  0
    8.8099    9.1271   -1.0042 H   0  0  0  0  0  0  0  0  0  0  0  0
    5.2530   11.2621   -1.9360 H   0  0  0  0  0  0  0  0  0  0  0  0
    4.3354   13.0699   -1.1797 H   0  0  0  0  0  0  0  0  0  0  0  0
  1  2  1  0  0  0  0
  1 25  1  0  0  0  0
  1 26  1  0  0  0  0
  1 27  1  0  0  0  0
  2  3  1  0  0  0  0
  3  4  1  0  0  0  0
  3 23  2  0  0  0  0
  4  5  2  0  0  0  0
  4 28  1  0  0  0  0
  5  6  1  0  0  0  0
  5 29  1  0  0  0  0
  6  7  1  0  0  0  0
  6 22  2  0  0  0  0
  7 30  1  0  0  0  0
  7 31  1  0  0  0  0
  8  9  1  0  0  0  0
  8 20  1  0  0  0  0
  8  7  1  0  0  0  0
  8 32  1  1  0  0  0
  9 10  1  0  0  0  0
  9 17  2  0  0  0  0
 10 11  2  0  0  0  0
 10 33  1  0  0  0  0
 11 12  1  0  0  0  0
 11 13  1  0  0  0  0
 12 34  1  0  0  0  0
 13 14  1  0  0  0  0
 13 16  2  0  0  0  0
 14 15  1  0  0  0  0
 15 35  1  0  0  0  0
 15 36  1  0  0  0  0
 15 37  1  0  0  0  0
 16 17  1  0  0  0  0
 16 38  1  0  0  0  0
 17 18  1  0  0  0  0
 18 19  1  0  0  0  0
 18 39  1  0  0  0  0
 18 40  1  0  0  0  0
 19 20  1  0  0  0  0
 19 41  1  0  0  0  0
 19 42  1  0  0  0  0
 20 21  1  0  0  0  0
 21 43  1  0  0  0  0
 21 44  1  0  0  0  0
 21 45  1  0  0  0  0
 22 23  1  0  0  0  0
 22 46  1  0  0  0  0
 23 24  1  0  0  0  0
 24 47  1  0  0  0  0
M  END
$$$$
