CHEBI:17395
 OpenBabel04242416283D

 21 21  0  0  0  0  0  0  0  0999 V2000
    1.6513    0.8289   -2.0378 O   0  0  0  0  0  0  0  0  0  0  0  0
    2.3549    0.2941   -1.1979 C   0  0  0  0  0  0  0  0  0  0  0  0
    2.3619   -1.0311   -0.9716 O   0  0  0  0  0  0  0  0  0  0  0  0
    3.2049    1.0782   -0.2840 C   0  0  0  0  0  0  0  0  0  0  0  0
    4.4145    0.7878    0.2222 C   0  0  0  0  0  0  0  0  0  0  0  0
    5.2653   -0.3853   -0.0176 C   0  0  0  0  0  0  0  0  0  0  0  0
    5.4563   -0.9251   -1.3006 C   0  0  0  0  0  0  0  0  0  0  0  0
    6.2950   -2.0288   -1.4980 C   0  0  0  0  0  0  0  0  0  0  0  0
    6.9634   -2.5748   -0.4109 C   0  0  0  0  0  0  0  0  0  0  0  0
    7.7991   -3.6483   -0.5376 O   0  0  0  0  0  0  0  0  0  0  0  0
    6.8012   -2.0266    0.8574 C   0  0  0  0  0  0  0  0  0  0  0  0
    7.4749   -2.5558    1.9208 O   0  0  0  0  0  0  0  0  0  0  0  0
    5.9626   -0.9388    1.0637 C   0  0  0  0  0  0  0  0  0  0  0  0
    2.9213   -1.2980   -0.2180 H   0  0  0  0  0  0  0  0  0  0  0  0
    2.7629    2.0438   -0.0478 H   0  0  0  0  0  0  0  0  0  0  0  0
    4.8612    1.5232    0.8928 H   0  0  0  0  0  0  0  0  0  0  0  0
    4.9578   -0.4910   -2.1662 H   0  0  0  0  0  0  0  0  0  0  0  0
    6.4146   -2.4327   -2.4986 H   0  0  0  0  0  0  0  0  0  0  0  0
    7.8000   -3.9258   -1.4703 H   0  0  0  0  0  0  0  0  0  0  0  0
    8.0065   -3.2835    1.5394 H   0  0  0  0  0  0  0  0  0  0  0  0
    5.8641   -0.5331    2.0673 H   0  0  0  0  0  0  0  0  0  0  0  0
  1  2  2  0  0  0  0
  2  3  1  0  0  0  0
  2  4  1  0  0  0  0
  3 14  1  0  0  0  0
  4  5  2  0  0  0  0
  4 15  1  0  0  0  0
  5  6  1  0  0  0  0
  5 16  1  0  0  0  0
  6  7  1  0  0  0  0
  6 13  2  0  0  0  0
  7  8  2  0  0  0  0
  7 17  1  0  0  0  0
  8  9  1  0  0  0  0
  8 18  1  0  0  0  0
  9 10  1  0  0  0  0
  9 11  2  0  0  0  0
 10 19  1  0  0  0  0
 11 12  1  0  0  0  0
 11 13  1  0  0  0  0
 12 20  1  0  0  0  0
 13 21  1  0  0  0  0
M  END
$$$$
