CHEBI:18030
 OpenBabel04242423263D

 40 42  0  0  0  0  0  0  0  0999 V2000
   -2.2389    1.0572    0.7941 O   0  0  0  0  0  0  0  0  0  0  0  0
   -1.5478    0.1294    0.3834 C   0  0  0  0  0  0  0  0  0  0  0  0
   -2.2086   -1.0923   -0.1463 C   0  0  0  0  0  0  0  0  0  0  0  0
   -3.5585   -1.0622   -0.4597 O   0  0  0  0  0  0  0  0  0  0  0  0
   -4.2151    0.2181   -1.2386 S   0  0  0  0  0  0  0  0  0  0  0  0
   -3.1939    0.8365   -2.0599 O   0  0  0  0  0  0  0  0  0  0  0  0
   -5.4626   -0.2196   -1.8275 O   0  0  0  0  0  0  0  0  0  0  0  0
   -4.5745    1.2506   -0.0513 O   0  0  0  0  0  0  0  0  0  0  0  0
   -1.4665   -2.2080   -0.2442 C   0  0  0  0  0  0  0  0  0  0  0  0
   -2.0587   -3.4922   -0.6332 C   0  0  0  0  0  0  0  0  0  0  0  0
   -2.1392   -3.8734   -1.9729 C   0  0  0  0  0  0  0  0  0  0  0  0
   -2.7525   -5.0824   -2.3171 C   0  0  0  0  0  0  0  0  0  0  0  0
   -3.3016   -5.9267   -1.3387 C   0  0  0  0  0  0  0  0  0  0  0  0
   -3.8837   -7.0485   -1.8685 O   0  0  0  0  0  0  0  0  0  0  0  0
   -4.4274   -8.3020   -0.9983 S   0  0  0  0  0  0  0  0  0  0  0  0
   -3.3195   -9.1402   -0.6044 O   0  0  0  0  0  0  0  0  0  0  0  0
   -5.4053   -7.8102   -0.0461 O   0  0  0  0  0  0  0  0  0  0  0  0
   -5.2973   -9.1215   -2.0803 O   0  0  0  0  0  0  0  0  0  0  0  0
   -3.2107   -5.5389   -0.0010 C   0  0  0  0  0  0  0  0  0  0  0  0
   -3.7032   -6.2394    1.0597 O   0  0  0  0  0  0  0  0  0  0  0  0
   -2.5811   -4.3403    0.3484 C   0  0  0  0  0  0  0  0  0  0  0  0
   -0.1126   -2.2820    0.0175 O   0  0  0  0  0  0  0  0  0  0  0  0
    0.5692   -1.1047    0.2063 C   0  0  0  0  0  0  0  0  0  0  0  0
    1.9626   -1.1858    0.1926 C   0  0  0  0  0  0  0  0  0  0  0  0
    2.7080   -0.0248    0.3603 C   0  0  0  0  0  0  0  0  0  0  0  0
    4.0704   -0.0438    0.3259 O   0  0  0  0  0  0  0  0  0  0  0  0
    2.0869    1.2048    0.5598 C   0  0  0  0  0  0  0  0  0  0  0  0
    0.6937    1.2778    0.5825 C   0  0  0  0  0  0  0  0  0  0  0  0
    0.0933    2.4910    0.7573 O   0  0  0  0  0  0  0  0  0  0  0  0
   -0.0721    0.1213    0.4006 C   0  0  0  0  0  0  0  0  0  0  0  0
   -3.7284    1.4773    0.4163 H   0  0  0  0  0  0  0  0  0  0  0  0
   -1.7334   -3.2381   -2.7573 H   0  0  0  0  0  0  0  0  0  0  0  0
   -2.8041   -5.3660   -3.3671 H   0  0  0  0  0  0  0  0  0  0  0  0
   -6.2105   -8.7697   -2.0579 H   0  0  0  0  0  0  0  0  0  0  0  0
   -4.6034   -6.5694    0.8580 H   0  0  0  0  0  0  0  0  0  0  0  0
   -2.5232   -4.0640    1.3998 H   0  0  0  0  0  0  0  0  0  0  0  0
    2.4420   -2.1479    0.0399 H   0  0  0  0  0  0  0  0  0  0  0  0
    4.3747   -0.9472    0.1344 H   0  0  0  0  0  0  0  0  0  0  0  0
    2.7015    2.0916    0.6843 H   0  0  0  0  0  0  0  0  0  0  0  0
    0.7655    3.1836    0.8698 H   0  0  0  0  0  0  0  0  0  0  0  0
  1  2  2  0  0  0  0
  2  3  1  0  0  0  0
  2 30  1  0  0  0  0
  3  4  1  0  0  0  0
  3  9  2  0  0  0  0
  4  5  1  0  0  0  0
  5  6  2  0  0  0  0
  5  7  2  0  0  0  0
  5  8  1  0  0  0  0
  8 31  1  0  0  0  0
  9 10  1  0  0  0  0
  9 22  1  0  0  0  0
 10 11  1  0  0  0  0
 10 21  2  0  0  0  0
 11 12  2  0  0  0  0
 11 32  1  0  0  0  0
 12 13  1  0  0  0  0
 12 33  1  0  0  0  0
 13 14  1  0  0  0  0
 13 19  2  0  0  0  0
 14 15  1  0  0  0  0
 15 16  2  0  0  0  0
 15 17  2  0  0  0  0
 15 18  1  0  0  0  0
 18 34  1  0  0  0  0
 19 20  1  0  0  0  0
 19 21  1  0  0  0  0
 20 35  1  0  0  0  0
 21 36  1  0  0  0  0
 22 23  1  0  0  0  0
 23 24  1  0  0  0  0
 23 30  2  0  0  0  0
 24 25  2  0  0  0  0
 24 37  1  0  0  0  0
 25 26  1  0  0  0  0
 25 27  1  0  0  0  0
 26 38  1  0  0  0  0
 27 28  2  0  0  0  0
 27 39  1  0  0  0  0
 28 29  1  0  0  0  0
 28 30  1  0  0  0  0
 29 40  1  0  0  0  0
M  END
$$$$
