CHEBI:15862
 OpenBabel04242413233D

 10  9  0  0  0  0  0  0  0  0999 V2000
    1.0750    0.0207   -0.0703 C   0  0  0  0  0  0  0  0  0  0  0  0
    2.5935    0.0339   -0.0755 C   0  0  0  0  0  0  0  0  0  0  0  0
    3.0898    1.1194   -0.9108 N   0  0  0  0  0  0  0  0  0  0  0  0
    0.7069   -0.7914    0.5648 H   0  0  0  0  0  0  0  0  0  0  0  0
    0.6755   -0.1325   -1.0785 H   0  0  0  0  0  0  0  0  0  0  0  0
    0.6720    0.9620    0.3187 H   0  0  0  0  0  0  0  0  0  0  0  0
    2.9724   -0.9225   -0.4508 H   0  0  0  0  0  0  0  0  0  0  0  0
    2.9651    0.1640    0.9459 H   0  0  0  0  0  0  0  0  0  0  0  0
    2.7685    0.9903   -1.8694 H   0  0  0  0  0  0  0  0  0  0  0  0
    4.1078    1.0828   -0.9434 H   0  0  0  0  0  0  0  0  0  0  0  0
  1  2  1  0  0  0  0
  1  4  1  0  0  0  0
  1  5  1  0  0  0  0
  1  6  1  0  0  0  0
  2  3  1  0  0  0  0
  2  7  1  0  0  0  0
  2  8  1  0  0  0  0
  3  9  1  0  0  0  0
  3 10  1  0  0  0  0
M  END
$$$$
