CHEBI:16861
 OpenBabel04242415273D

 78 81  0  0  1  0  0  0  0  0999 V2000
    9.8506   -3.1396    3.4367 C   0  0  0  0  0  0  0  0  0  0  0  0
    8.4439   -3.0379    3.7828 N   0  0  0  0  0  0  0  0  0  0  0  0
    7.8938   -1.6618    3.7305 C   0  0  1  0  0  0  0  0  0  0  0  0
    8.0054   -0.9926    2.3640 C   0  0  0  0  0  0  0  0  0  0  0  0
    7.3277    0.3747    2.4117 C   0  0  1  0  0  0  0  0  0  0  0  0
    7.5434    1.0719    1.1331 N   0  0  0  0  0  0  0  0  0  0  0  0
    5.8252    0.2088    2.6857 C   0  0  2  0  0  0  0  0  0  0  0  0
    5.2110    1.5130    2.7322 O   0  0  0  0  0  0  0  0  0  0  0  0
    5.5177   -0.5307    4.0022 C   0  0  1  0  0  0  0  0  0  0  0  0
    4.1080   -0.8843    3.8668 O   0  0  0  0  0  0  0  0  0  0  0  0
    3.4797   -1.4807    5.0050 C   0  0  2  0  0  0  0  0  0  0  0  0
    4.0830   -2.7512    5.2609 O   0  0  0  0  0  0  0  0  0  0  0  0
    3.2770   -3.8120    5.7779 C   0  0  2  0  0  0  0  0  0  0  0  0
    4.2117   -4.9987    6.0702 C   0  0  0  0  0  0  0  0  0  0  0  0
    4.8477   -5.5039    4.8952 O   0  0  0  0  0  0  0  0  0  0  0  0
    2.1169   -4.1478    4.8052 C   0  0  2  0  0  0  0  0  0  0  0  0
    2.3675   -5.2996    3.9906 O   0  0  0  0  0  0  0  0  0  0  0  0
    1.8698   -2.9516    3.8968 C   0  0  2  0  0  0  0  0  0  0  0  0
    0.5405   -2.8877    3.3945 O   0  0  0  0  0  0  0  0  0  0  0  0
    0.4204   -1.4840    3.0440 C   0  0  2  0  0  0  0  0  0  0  0  0
    1.2829   -0.7139    3.9127 O   0  0  0  0  0  0  0  0  0  0  0  0
    1.9846   -1.6819    4.6910 C   0  0  2  0  0  0  0  0  0  0  0  0
    0.8398   -1.2603    1.7050 O   0  0  0  0  0  0  0  0  0  0  0  0
    0.0857   -1.9825    0.7133 C   0  0  2  0  0  0  0  0  0  0  0  0
    0.6706   -1.6178   -0.6845 C   0  0  0  0  0  0  0  0  0  0  0  0
    0.6333   -0.1620   -0.9393 N   0  0  0  0  0  0  0  0  0  0  0  0
    2.1256   -2.1001   -0.8306 C   0  0  0  0  0  0  0  0  0  0  0  0
    2.1770   -3.5200   -0.8975 O   0  0  0  0  0  0  0  0  0  0  0  0
    3.6420   -4.1667   -0.8613 P   0  0  0  0  0  0  0  0  0  0  0  0
    4.3313   -4.1659    0.4560 O   0  0  0  0  0  0  0  0  0  0  0  0
    3.4229   -5.6340   -1.4499 O   0  0  0  0  0  0  0  0  0  0  0  0
    4.4620   -3.4622   -2.0327 O   0  0  0  0  0  0  0  0  0  0  0  0
   -1.4307   -1.6926    0.8213 C   0  0  2  0  0  0  0  0  0  0  0  0
   -1.7501   -0.3451    0.4384 O   0  0  0  0  0  0  0  0  0  0  0  0
   -1.9214   -1.8880    2.2561 C   0  0  2  0  0  0  0  0  0  0  0  0
   -3.2911   -1.4547    2.3441 O   0  0  0  0  0  0  0  0  0  0  0  0
   -1.0627   -1.0916    3.2470 C   0  0  1  0  0  0  0  0  0  0  0  0
   -1.5466   -1.4013    4.5765 O   0  0  0  0  0  0  0  0  0  0  0  0
    6.4277   -1.7603    4.2192 C   0  0  2  0  0  0  0  0  0  0  0  0
    6.5265   -2.0221    5.6381 O   0  0  0  0  0  0  0  0  0  0  0  0
   10.1860   -4.1669    3.6136 H   0  0  0  0  0  0  0  0  0  0  0  0
   10.4642   -2.4822    4.0591 H   0  0  0  0  0  0  0  0  0  0  0  0
   10.0297   -2.9176    2.3809 H   0  0  0  0  0  0  0  0  0  0  0  0
    7.9001   -3.6522    3.1715 H   0  0  0  0  0  0  0  0  0  0  0  0
    8.4561   -1.0632    4.4608 H   0  0  0  0  0  0  0  0  0  0  0  0
    7.5461   -1.6232    1.5908 H   0  0  0  0  0  0  0  0  0  0  0  0
    9.0603   -0.8660    2.0916 H   0  0  0  0  0  0  0  0  0  0  0  0
    7.7708    0.9972    3.1999 H   0  0  0  0  0  0  0  0  0  0  0  0
    6.9268    1.8912    1.1339 H   0  0  0  0  0  0  0  0  0  0  0  0
    8.4941    1.4368    1.1018 H   0  0  0  0  0  0  0  0  0  0  0  0
    5.3542   -0.3190    1.8451 H   0  0  0  0  0  0  0  0  0  0  0  0
    4.2638    1.3395    2.8966 H   0  0  0  0  0  0  0  0  0  0  0  0
    5.5937    0.1641    4.8485 H   0  0  0  0  0  0  0  0  0  0  0  0
    3.6026   -0.8194    5.8698 H   0  0  0  0  0  0  0  0  0  0  0  0
    2.8593   -3.4598    6.7297 H   0  0  0  0  0  0  0  0  0  0  0  0
    5.0133   -4.6848    6.7466 H   0  0  0  0  0  0  0  0  0  0  0  0
    3.6626   -5.8202    6.5395 H   0  0  0  0  0  0  0  0  0  0  0  0
    4.1381   -5.5964    4.2249 H   0  0  0  0  0  0  0  0  0  0  0  0
    1.2234   -4.3924    5.3920 H   0  0  0  0  0  0  0  0  0  0  0  0
    1.6325   -5.3548    3.3504 H   0  0  0  0  0  0  0  0  0  0  0  0
    2.5423   -2.9743    3.0274 H   0  0  0  0  0  0  0  0  0  0  0  0
    1.4276   -1.7761    5.6335 H   0  0  0  0  0  0  0  0  0  0  0  0
    0.2458   -3.0550    0.8852 H   0  0  0  0  0  0  0  0  0  0  0  0
    0.0623   -2.1187   -1.4480 H   0  0  0  0  0  0  0  0  0  0  0  0
    1.1587    0.2958   -0.1892 H   0  0  0  0  0  0  0  0  0  0  0  0
   -0.3328    0.1476   -0.7588 H   0  0  0  0  0  0  0  0  0  0  0  0
    2.7496   -1.7480   -0.0009 H   0  0  0  0  0  0  0  0  0  0  0  0
    2.5493   -1.7083   -1.7628 H   0  0  0  0  0  0  0  0  0  0  0  0
    3.1788   -6.2640   -0.7501 H   0  0  0  0  0  0  0  0  0  0  0  0
    5.4078   -3.6873   -1.9921 H   0  0  0  0  0  0  0  0  0  0  0  0
   -1.9874   -2.3452    0.1389 H   0  0  0  0  0  0  0  0  0  0  0  0
   -2.6877   -0.2247    0.7018 H   0  0  0  0  0  0  0  0  0  0  0  0
   -1.9169   -2.9535    2.5161 H   0  0  0  0  0  0  0  0  0  0  0  0
   -3.4760   -1.3546    3.3007 H   0  0  0  0  0  0  0  0  0  0  0  0
   -1.2051   -0.0142    3.1079 H   0  0  0  0  0  0  0  0  0  0  0  0
   -1.1610   -2.2652    4.8132 H   0  0  0  0  0  0  0  0  0  0  0  0
    5.9482   -2.6286    3.7484 H   0  0  0  0  0  0  0  0  0  0  0  0
    7.0404   -2.8541    5.6843 H   0  0  0  0  0  0  0  0  0  0  0  0
  1  2  1  0  0  0  0
  1 41  1  0  0  0  0
  1 42  1  0  0  0  0
  1 43  1  0  0  0  0
  2 44  1  0  0  0  0
  3  4  1  0  0  0  0
  3 39  1  0  0  0  0
  3  2  1  0  0  0  0
  3 45  1  1  0  0  0
  4  5  1  0  0  0  0
  4 46  1  0  0  0  0
  4 47  1  0  0  0  0
  5  6  1  0  0  0  0
  5  7  1  0  0  0  0
  5 48  1  1  0  0  0
  6 49  1  0  0  0  0
  6 50  1  0  0  0  0
  7  9  1  0  0  0  0
  7  8  1  0  0  0  0
  7 51  1  6  0  0  0
  8 52  1  0  0  0  0
  9 10  1  0  0  0  0
  9 39  1  0  0  0  0
  9 53  1  1  0  0  0
 10 11  1  0  0  0  0
 11 12  1  0  0  0  0
 11 22  1  0  0  0  0
 11 54  1  1  0  0  0
 12 13  1  0  0  0  0
 13 16  1  0  0  0  0
 13 14  1  0  0  0  0
 13 55  1  1  0  0  0
 14 15  1  0  0  0  0
 14 56  1  0  0  0  0
 14 57  1  0  0  0  0
 15 58  1  0  0  0  0
 16 18  1  0  0  0  0
 16 17  1  0  0  0  0
 16 59  1  1  0  0  0
 17 60  1  0  0  0  0
 18 19  1  0  0  0  0
 18 22  1  0  0  0  0
 18 61  1  1  0  0  0
 20 19  1  6  0  0  0
 20 21  1  0  0  0  0
 20 23  1  0  0  0  0
 20 37  1  0  0  0  0
 21 22  1  0  0  0  0
 22 62  1  1  0  0  0
 23 24  1  0  0  0  0
 24 25  1  0  0  0  0
 24 33  1  0  0  0  0
 24 63  1  1  0  0  0
 25 26  1  0  0  0  0
 25 27  1  0  0  0  0
 25 64  1  0  0  0  0
 26 65  1  0  0  0  0
 26 66  1  0  0  0  0
 27 28  1  0  0  0  0
 27 67  1  0  0  0  0
 27 68  1  0  0  0  0
 28 29  1  0  0  0  0
 29 30  2  0  0  0  0
 29 31  1  0  0  0  0
 29 32  1  0  0  0  0
 31 69  1  0  0  0  0
 32 70  1  0  0  0  0
 33 34  1  0  0  0  0
 33 35  1  0  0  0  0
 33 71  1  6  0  0  0
 34 72  1  0  0  0  0
 35 36  1  0  0  0  0
 35 37  1  0  0  0  0
 35 73  1  1  0  0  0
 36 74  1  0  0  0  0
 37 38  1  0  0  0  0
 37 75  1  6  0  0  0
 38 76  1  0  0  0  0
 39 40  1  0  0  0  0
 39 77  1  6  0  0  0
 40 78  1  0  0  0  0
M  END
$$$$
