CHEBI:18269
 OpenBabel04252409183D

 24 24  0  0  1  0  0  0  0  0999 V2000
    0.9698   -0.2734   -0.3063 H   0  0  0  0  0  0  0  0  0  0  0  0
    1.9145   -0.0917   -0.1529 O   0  0  0  0  0  0  0  0  0  0  0  0
    2.4389    0.2269   -1.4367 C   0  0  1  0  0  0  0  0  0  0  0  0
    1.9254    1.4743   -1.8818 O   0  0  0  0  0  0  0  0  0  0  0  0
    2.3421    2.5872   -1.0751 C   0  0  2  0  0  0  0  0  0  0  0  0
    1.6998    3.8684   -1.6278 C   0  0  0  0  0  0  0  0  0  0  0  0
    1.9022    4.9865   -0.7701 O   0  0  0  0  0  0  0  0  0  0  0  0
    3.8747    2.7032   -1.0573 C   0  0  1  0  0  0  0  0  0  0  0  0
    4.3081    3.7949   -0.2367 O   0  0  0  0  0  0  0  0  0  0  0  0
    4.4795    1.3988   -0.5396 C   0  0  2  0  0  0  0  0  0  0  0  0
    5.9122    1.4898   -0.6169 O   0  0  0  0  0  0  0  0  0  0  0  0
    3.9766    0.2172   -1.3696 C   0  0  1  0  0  0  0  0  0  0  0  0
    4.4673   -0.9976   -0.7805 O   0  0  0  0  0  0  0  0  0  0  0  0
    2.1055   -0.5560   -2.1266 H   0  0  0  0  0  0  0  0  0  0  0  0
    1.9742    2.4567   -0.0485 H   0  0  0  0  0  0  0  0  0  0  0  0
    0.6206    3.7270   -1.7501 H   0  0  0  0  0  0  0  0  0  0  0  0
    2.0994    4.1090   -2.6193 H   0  0  0  0  0  0  0  0  0  0  0  0
    2.8328    4.9436   -0.4600 H   0  0  0  0  0  0  0  0  0  0  0  0
    4.2517    2.8978   -2.0695 H   0  0  0  0  0  0  0  0  0  0  0  0
    5.2696    3.6470   -0.1103 H   0  0  0  0  0  0  0  0  0  0  0  0
    4.2503    1.2614    0.5242 H   0  0  0  0  0  0  0  0  0  0  0  0
    6.2382    0.5748   -0.4946 H   0  0  0  0  0  0  0  0  0  0  0  0
    4.3975    0.2823   -2.3798 H   0  0  0  0  0  0  0  0  0  0  0  0
    3.8625   -1.1912   -0.0346 H   0  0  0  0  0  0  0  0  0  0  0  0
  1  2  1  0  0  0  0
  2  3  1  0  0  0  0
  3  4  1  0  0  0  0
  3 12  1  0  0  0  0
  3 14  1  6  0  0  0
  4  5  1  0  0  0  0
  5  6  1  0  0  0  0
  5  8  1  0  0  0  0
  5 15  1  1  0  0  0
  6  7  1  0  0  0  0
  6 16  1  0  0  0  0
  6 17  1  0  0  0  0
  7 18  1  0  0  0  0
  8  9  1  0  0  0  0
  8 10  1  0  0  0  0
  8 19  1  6  0  0  0
  9 20  1  0  0  0  0
 10 11  1  0  0  0  0
 10 12  1  0  0  0  0
 10 21  1  1  0  0  0
 11 22  1  0  0  0  0
 12 13  1  0  0  0  0
 12 23  1  6  0  0  0
 13 24  1  0  0  0  0
M  END
$$$$
