CHEBI:15510
 OpenBabel04242412253D

 94 97  0  0  1  0  0  0  0  0999 V2000
    0.8961  -17.1505   -3.9660 C   0  0  0  0  0  0  0  0  0  0  0  0
    0.2608  -15.8869   -4.5777 C   0  0  0  0  0  0  0  0  0  0  0  0
   -0.9881  -15.5363   -3.7324 C   0  0  0  0  0  0  0  0  0  0  0  0
    1.2680  -14.7193   -4.4786 C   0  0  0  0  0  0  0  0  0  0  0  0
    0.6828  -13.5053   -4.9349 O   0  0  0  0  0  0  0  0  0  0  0  0
    1.6222  -12.1970   -4.9078 P   0  0  0  0  0  0  0  0  0  0  0  0
    2.5932  -12.1136   -6.0337 O   0  0  0  0  0  0  0  0  0  0  0  0
    0.5267  -11.0281   -4.9597 O   0  0  0  0  0  0  0  0  0  0  0  0
    2.1862  -12.1024   -3.4303 O   0  0  0  0  0  0  0  0  0  0  0  0
    3.5995  -11.4664   -3.1052 P   0  0  0  0  0  0  0  0  0  0  0  0
    3.8672  -10.1027   -3.6458 O   0  0  0  0  0  0  0  0  0  0  0  0
    3.6017  -11.4481   -1.4989 O   0  0  0  0  0  0  0  0  0  0  0  0
    4.6856  -12.6008   -3.4353 O   0  0  0  0  0  0  0  0  0  0  0  0
    6.0347  -12.2651   -3.1728 C   0  0  0  0  0  0  0  0  0  0  0  0
    6.9843  -13.4258   -3.4559 C   0  0  1  0  0  0  0  0  0  0  0  0
    8.3268  -12.9909   -3.1565 O   0  0  0  0  0  0  0  0  0  0  0  0
    9.0624  -14.1213   -2.6486 C   0  0  1  0  0  0  0  0  0  0  0  0
    9.7002  -13.7209   -1.4118 N   0  0  0  0  0  0  0  0  0  0  0  0
   10.9578  -13.1725   -1.3360 C   0  0  0  0  0  0  0  0  0  0  0  0
   11.3179  -12.9236   -0.0950 N   0  0  0  0  0  0  0  0  0  0  0  0
   10.2305  -13.2980    0.6654 C   0  0  0  0  0  0  0  0  0  0  0  0
    9.9922  -13.2730    2.0502 C   0  0  0  0  0  0  0  0  0  0  0  0
   10.9158  -12.7978    2.9724 N   0  0  0  0  0  0  0  0  0  0  0  0
    8.8173  -13.7558    2.5132 N   0  0  0  0  0  0  0  0  0  0  0  0
    7.9177  -14.2139    1.6180 C   0  0  0  0  0  0  0  0  0  0  0  0
    8.0318  -14.2830    0.2759 N   0  0  0  0  0  0  0  0  0  0  0  0
    9.2176  -13.8050   -0.1347 C   0  0  0  0  0  0  0  0  0  0  0  0
    8.1071  -15.3169   -2.5884 C   0  0  2  0  0  0  0  0  0  0  0  0
    8.2875  -16.1201   -3.7692 O   0  0  0  0  0  0  0  0  0  0  0  0
    6.7252  -14.6689   -2.6075 C   0  0  2  0  0  0  0  0  0  0  0  0
    5.7303  -15.5041   -3.1807 O   0  0  0  0  0  0  0  0  0  0  0  0
    5.2732  -16.7982   -2.3620 P   0  0  0  0  0  0  0  0  0  0  0  0
    6.3600  -17.7534   -2.0094 O   0  0  0  0  0  0  0  0  0  0  0  0
    4.4521  -16.2095   -1.1294 O   0  0  0  0  0  0  0  0  0  0  0  0
    4.1251  -17.4152   -3.2739 O   0  0  0  0  0  0  0  0  0  0  0  0
   -0.2018  -16.1821   -6.0334 C   0  0  1  0  0  0  0  0  0  0  0  0
   -0.8688  -15.0709   -6.6315 O   0  0  0  0  0  0  0  0  0  0  0  0
    0.9034  -16.6896   -6.9898 C   0  0  0  0  0  0  0  0  0  0  0  0
    2.1050  -16.5003   -6.8323 O   0  0  0  0  0  0  0  0  0  0  0  0
    0.3997  -17.4101   -8.0554 N   0  0  0  0  0  0  0  0  0  0  0  0
    1.2638  -18.0838   -9.0009 C   0  0  0  0  0  0  0  0  0  0  0  0
    1.6558  -17.1969  -10.1676 C   0  0  0  0  0  0  0  0  0  0  0  0
    2.6154  -17.9515  -11.0542 C   0  0  0  0  0  0  0  0  0  0  0  0
    2.2068  -18.6194  -12.0050 O   0  0  0  0  0  0  0  0  0  0  0  0
    3.9478  -17.9686  -10.7670 N   0  0  0  0  0  0  0  0  0  0  0  0
    4.6983  -17.1513   -9.8209 C   0  0  0  0  0  0  0  0  0  0  0  0
    5.2462  -17.9625   -8.6431 C   0  0  0  0  0  0  0  0  0  0  0  0
    6.2232  -16.8693   -7.5731 S   0  0  0  0  0  0  0  0  0  0  0  0
    6.4884  -17.9536   -6.2166 C   0  0  0  0  0  0  0  0  0  0  0  0
    5.6032  -18.1307   -5.3793 O   0  0  0  0  0  0  0  0  0  0  0  0
    7.8258  -18.4952   -6.1120 C   0  0  0  0  0  0  0  0  0  0  0  0
    8.4397  -19.1562   -5.0590 C   0  0  0  0  0  0  0  0  0  0  0  0
    9.7825  -19.3918   -5.4449 C   0  0  0  0  0  0  0  0  0  0  0  0
    9.8937  -18.9027   -6.7223 C   0  0  0  0  0  0  0  0  0  0  0  0
   10.8716  -18.8245   -7.6043 O   0  0  0  0  0  0  0  0  0  0  0  0
    8.7210  -18.3744   -7.1439 O   0  0  0  0  0  0  0  0  0  0  0  0
    1.1531  -16.9934   -2.9123 H   0  0  0  0  0  0  0  0  0  0  0  0
    1.8140  -17.4352   -4.4869 H   0  0  0  0  0  0  0  0  0  0  0  0
    0.2099  -18.0030   -4.0170 H   0  0  0  0  0  0  0  0  0  0  0  0
   -0.7155  -15.3442   -2.6883 H   0  0  0  0  0  0  0  0  0  0  0  0
   -1.7093  -16.3619   -3.7374 H   0  0  0  0  0  0  0  0  0  0  0  0
   -1.5042  -14.6465   -4.1079 H   0  0  0  0  0  0  0  0  0  0  0  0
    2.1817  -14.9075   -5.0479 H   0  0  0  0  0  0  0  0  0  0  0  0
    1.5644  -14.5841   -3.4314 H   0  0  0  0  0  0  0  0  0  0  0  0
    0.3445  -10.7582   -5.8782 H   0  0  0  0  0  0  0  0  0  0  0  0
    3.2933  -10.5823   -1.1731 H   0  0  0  0  0  0  0  0  0  0  0  0
    6.1411  -11.9452   -2.1295 H   0  0  0  0  0  0  0  0  0  0  0  0
    6.3194  -11.4088   -3.7951 H   0  0  0  0  0  0  0  0  0  0  0  0
    6.9295  -13.6830   -4.5218 H   0  0  0  0  0  0  0  0  0  0  0  0
    9.8700  -14.3255   -3.3630 H   0  0  0  0  0  0  0  0  0  0  0  0
   11.5607  -12.9788   -2.2150 H   0  0  0  0  0  0  0  0  0  0  0  0
   11.8647  -12.7760    2.6156 H   0  0  0  0  0  0  0  0  0  0  0  0
   10.7666  -13.1823    3.8955 H   0  0  0  0  0  0  0  0  0  0  0  0
    6.9822  -14.5772    2.0347 H   0  0  0  0  0  0  0  0  0  0  0  0
    8.2799  -15.9795   -1.7366 H   0  0  0  0  0  0  0  0  0  0  0  0
    7.6231  -16.8303   -3.7034 H   0  0  0  0  0  0  0  0  0  0  0  0
    6.4141  -14.3729   -1.6019 H   0  0  0  0  0  0  0  0  0  0  0  0
    4.1111  -16.9178   -0.5557 H   0  0  0  0  0  0  0  0  0  0  0  0
    4.5041  -17.7819   -4.1088 H   0  0  0  0  0  0  0  0  0  0  0  0
   -0.9505  -16.9846   -5.9847 H   0  0  0  0  0  0  0  0  0  0  0  0
   -0.3231  -14.2838   -6.4374 H   0  0  0  0  0  0  0  0  0  0  0  0
   -0.5968  -17.3594   -8.2394 H   0  0  0  0  0  0  0  0  0  0  0  0
    0.7239  -18.9687   -9.3553 H   0  0  0  0  0  0  0  0  0  0  0  0
    2.1503  -18.4423   -8.4677 H   0  0  0  0  0  0  0  0  0  0  0  0
    2.0766  -16.2436   -9.8408 H   0  0  0  0  0  0  0  0  0  0  0  0
    0.7699  -16.9386  -10.7611 H   0  0  0  0  0  0  0  0  0  0  0  0
    4.4801  -18.5051  -11.4441 H   0  0  0  0  0  0  0  0  0  0  0  0
    4.0807  -16.3242   -9.4651 H   0  0  0  0  0  0  0  0  0  0  0  0
    5.5237  -16.7195  -10.3996 H   0  0  0  0  0  0  0  0  0  0  0  0
    5.8836  -18.7760   -9.0080 H   0  0  0  0  0  0  0  0  0  0  0  0
    4.4281  -18.4119   -8.0729 H   0  0  0  0  0  0  0  0  0  0  0  0
    7.9802  -19.3906   -4.1069 H   0  0  0  0  0  0  0  0  0  0  0  0
   10.5636  -19.8512   -4.8567 H   0  0  0  0  0  0  0  0  0  0  0  0
   11.6669  -19.1771   -7.1731 H   0  0  0  0  0  0  0  0  0  0  0  0
  1  2  1  0  0  0  0
  1 57  1  0  0  0  0
  1 58  1  0  0  0  0
  1 59  1  0  0  0  0
  2  3  1  0  0  0  0
  2  4  1  0  0  0  0
  2 36  1  0  0  0  0
  3 60  1  0  0  0  0
  3 61  1  0  0  0  0
  3 62  1  0  0  0  0
  4  5  1  0  0  0  0
  4 63  1  0  0  0  0
  4 64  1  0  0  0  0
  5  6  1  0  0  0  0
  6  7  2  0  0  0  0
  6  8  1  0  0  0  0
  6  9  1  0  0  0  0
  8 65  1  0  0  0  0
  9 10  1  0  0  0  0
 10 11  2  0  0  0  0
 10 12  1  0  0  0  0
 10 13  1  0  0  0  0
 12 66  1  0  0  0  0
 13 14  1  0  0  0  0
 14 67  1  0  0  0  0
 14 68  1  0  0  0  0
 15 16  1  0  0  0  0
 15 30  1  0  0  0  0
 15 14  1  0  0  0  0
 15 69  1  6  0  0  0
 16 17  1  0  0  0  0
 17 28  1  0  0  0  0
 17 18  1  0  0  0  0
 17 70  1  6  0  0  0
 18 19  1  0  0  0  0
 18 27  1  0  0  0  0
 19 20  2  0  0  0  0
 19 71  1  0  0  0  0
 20 21  1  0  0  0  0
 21 22  1  0  0  0  0
 21 27  2  0  0  0  0
 22 23  1  0  0  0  0
 22 24  2  0  0  0  0
 23 72  1  0  0  0  0
 23 73  1  0  0  0  0
 24 25  1  0  0  0  0
 25 26  2  0  0  0  0
 25 74  1  0  0  0  0
 26 27  1  0  0  0  0
 28 29  1  0  0  0  0
 28 30  1  0  0  0  0
 28 75  1  1  0  0  0
 29 76  1  0  0  0  0
 30 31  1  0  0  0  0
 30 77  1  1  0  0  0
 31 32  1  0  0  0  0
 32 33  2  0  0  0  0
 32 34  1  0  0  0  0
 32 35  1  0  0  0  0
 34 78  1  0  0  0  0
 35 79  1  0  0  0  0
 36 37  1  0  0  0  0
 36 38  1  0  0  0  0
 36 80  1  1  0  0  0
 37 81  1  0  0  0  0
 38 39  2  0  0  0  0
 38 40  1  0  0  0  0
 40 41  1  0  0  0  0
 40 82  1  0  0  0  0
 41 42  1  0  0  0  0
 41 83  1  0  0  0  0
 41 84  1  0  0  0  0
 42 43  1  0  0  0  0
 42 85  1  0  0  0  0
 42 86  1  0  0  0  0
 43 44  2  0  0  0  0
 43 45  1  0  0  0  0
 45 46  1  0  0  0  0
 45 87  1  0  0  0  0
 46 47  1  0  0  0  0
 46 88  1  0  0  0  0
 46 89  1  0  0  0  0
 47 48  1  0  0  0  0
 47 90  1  0  0  0  0
 47 91  1  0  0  0  0
 48 49  1  0  0  0  0
 49 50  2  0  0  0  0
 49 51  1  0  0  0  0
 51 52  2  0  0  0  0
 51 56  1  0  0  0  0
 52 53  1  0  0  0  0
 52 92  1  0  0  0  0
 53 54  2  0  0  0  0
 53 93  1  0  0  0  0
 54 55  1  0  0  0  0
 54 56  1  0  0  0  0
 55 94  1  0  0  0  0
M  END
$$$$
