CHEBI:17470
 OpenBabel04242416393D

 42 42  0  0  1  0  0  0  0  0999 V2000
    5.6306    2.3001    1.2561 O   0  0  0  0  0  0  0  0  0  0  0  0
    5.2877    2.1688    0.0886 C   0  0  0  0  0  0  0  0  0  0  0  0
    4.1426    1.3872   -0.4010 C   0  0  0  0  0  0  0  0  0  0  0  0
    3.2891    0.8327    0.4732 C   0  0  0  0  0  0  0  0  0  0  0  0
    2.0412    0.1643    0.0782 C   0  0  0  0  0  0  0  0  0  0  0  0
    1.5538   -0.8988    0.8571 C   0  0  0  0  0  0  0  0  0  0  0  0
    0.3256   -1.5039    0.5611 C   0  0  0  0  0  0  0  0  0  0  0  0
   -0.4202   -1.0334   -0.5116 C   0  0  0  0  0  0  0  0  0  0  0  0
   -1.6340   -1.5673   -0.8424 O   0  0  0  0  0  0  0  0  0  0  0  0
    0.0526    0.0228   -1.2829 C   0  0  0  0  0  0  0  0  0  0  0  0
   -0.6902    0.4933   -2.3279 O   0  0  0  0  0  0  0  0  0  0  0  0
    1.2695    0.6266   -0.9972 C   0  0  0  0  0  0  0  0  0  0  0  0
    5.8690    2.7936   -0.9593 O   0  0  0  0  0  0  0  0  0  0  0  0
    6.8339    3.8052   -0.6153 C   0  0  1  0  0  0  0  0  0  0  0  0
    8.1708    3.2080   -0.1620 C   0  0  0  0  0  0  0  0  0  0  0  0
    9.1859    3.2189   -0.8482 O   0  0  0  0  0  0  0  0  0  0  0  0
    8.1566    2.6596    1.0737 O   0  0  0  0  0  0  0  0  0  0  0  0
    7.0179    4.7188   -1.8519 C   0  0  1  0  0  0  0  0  0  0  0  0
    7.5293    3.9681   -2.9809 O   0  0  0  0  0  0  0  0  0  0  0  0
    7.9354    5.9529   -1.6719 C   0  0  2  0  0  0  0  0  0  0  0  0
    8.0871    6.6077   -2.9407 O   0  0  0  0  0  0  0  0  0  0  0  0
    7.5060    6.9776   -0.6137 C   0  0  2  0  0  0  0  0  0  0  0  0
    7.6257    6.4110    0.7080 O   0  0  0  0  0  0  0  0  0  0  0  0
    6.0640    7.4619   -0.8023 C   0  0  0  0  0  0  0  0  0  0  0  0
    5.6372    8.1112   -1.7408 O   0  0  0  0  0  0  0  0  0  0  0  0
    5.2718    7.0671    0.2319 O   0  0  0  0  0  0  0  0  0  0  0  0
    3.9994    1.3415   -1.4744 H   0  0  0  0  0  0  0  0  0  0  0  0
    3.4746    0.8949    1.5443 H   0  0  0  0  0  0  0  0  0  0  0  0
    2.1273   -1.2642    1.7070 H   0  0  0  0  0  0  0  0  0  0  0  0
   -0.0274   -2.3227    1.1796 H   0  0  0  0  0  0  0  0  0  0  0  0
   -1.8392   -2.2741   -0.2067 H   0  0  0  0  0  0  0  0  0  0  0  0
   -1.4954   -0.0617   -2.3280 H   0  0  0  0  0  0  0  0  0  0  0  0
    1.5856    1.4692   -1.6051 H   0  0  0  0  0  0  0  0  0  0  0  0
    6.4260    4.4104    0.1996 H   0  0  0  0  0  0  0  0  0  0  0  0
    7.2578    2.6102    1.4838 H   0  0  0  0  0  0  0  0  0  0  0  0
    6.0288    5.0536   -2.1867 H   0  0  0  0  0  0  0  0  0  0  0  0
    8.3801    3.5636   -2.7041 H   0  0  0  0  0  0  0  0  0  0  0  0
    8.9425    5.6076   -1.4166 H   0  0  0  0  0  0  0  0  0  0  0  0
    8.0082    5.9089   -3.6236 H   0  0  0  0  0  0  0  0  0  0  0  0
    8.1487    7.8652   -0.6560 H   0  0  0  0  0  0  0  0  0  0  0  0
    8.1120    7.0705    1.2445 H   0  0  0  0  0  0  0  0  0  0  0  0
    5.8260    6.6089    0.9031 H   0  0  0  0  0  0  0  0  0  0  0  0
  1  2  2  0  0  0  0
  2  3  1  0  0  0  0
  2 13  1  0  0  0  0
  3  4  2  0  0  0  0
  3 27  1  0  0  0  0
  4  5  1  0  0  0  0
  4 28  1  0  0  0  0
  5  6  1  0  0  0  0
  5 12  2  0  0  0  0
  6  7  2  0  0  0  0
  6 29  1  0  0  0  0
  7  8  1  0  0  0  0
  7 30  1  0  0  0  0
  8  9  1  0  0  0  0
  8 10  2  0  0  0  0
  9 31  1  0  0  0  0
 10 11  1  0  0  0  0
 10 12  1  0  0  0  0
 11 32  1  0  0  0  0
 12 33  1  0  0  0  0
 13 14  1  0  0  0  0
 14 15  1  0  0  0  0
 14 18  1  0  0  0  0
 14 34  1  1  0  0  0
 15 16  2  0  0  0  0
 15 17  1  0  0  0  0
 17 35  1  0  0  0  0
 18 19  1  0  0  0  0
 18 36  1  1  0  0  0
 19 37  1  0  0  0  0
 20 21  1  0  0  0  0
 20 18  1  0  0  0  0
 20 38  1  6  0  0  0
 21 39  1  0  0  0  0
 22 24  1  0  0  0  0
 22 23  1  0  0  0  0
 22 20  1  0  0  0  0
 22 40  1  6  0  0  0
 23 41  1  0  0  0  0
 24 25  2  0  0  0  0
 24 26  1  0  0  0  0
 26 42  1  0  0  0  0
M  END
$$$$
