CHEBI:15911
 OpenBabel04242413273D

 41 42  0  0  1  0  0  0  0  0999 V2000
   -1.1972    2.9713   -2.0549 O   0  0  0  0  0  0  0  0  0  0  0  0
    0.0845    2.4506   -2.4019 C   0  0  0  0  0  0  0  0  0  0  0  0
    1.2061    3.3592   -1.8825 C   0  0  1  0  0  0  0  0  0  0  0  0
    2.4510    2.8141   -2.3235 O   0  0  0  0  0  0  0  0  0  0  0  0
    3.5854    3.5202   -1.8049 C   0  0  1  0  0  0  0  0  0  0  0  0
    5.1131    2.6844   -2.3512 S   0  0  0  0  0  0  0  0  0  0  0  0
    4.9316    1.1428   -1.5152 C   0  0  0  0  0  0  0  0  0  0  0  0
    5.5537   -0.0450   -2.2264 C   0  0  0  0  0  0  0  0  0  0  0  0
    4.5995   -0.7443   -3.1685 C   0  0  0  0  0  0  0  0  0  0  0  0
    4.5038   -0.3505   -4.5106 C   0  0  0  0  0  0  0  0  0  0  0  0
    3.6251   -1.0009   -5.3789 C   0  0  0  0  0  0  0  0  0  0  0  0
    2.8310   -2.0476   -4.9149 C   0  0  0  0  0  0  0  0  0  0  0  0
    2.9122   -2.4429   -3.5814 C   0  0  0  0  0  0  0  0  0  0  0  0
    3.7901   -1.7935   -2.7120 C   0  0  0  0  0  0  0  0  0  0  0  0
    4.3302    1.1179   -0.3613 N   0  0  0  0  0  0  0  0  0  0  0  0
    4.2908   -0.1694    0.1838 O   0  0  0  0  0  0  0  0  0  0  0  0
    3.5739    4.9816   -2.3043 C   0  0  2  0  0  0  0  0  0  0  0  0
    4.6275    5.7668   -1.7261 O   0  0  0  0  0  0  0  0  0  0  0  0
    2.2416    5.6363   -1.9246 C   0  0  1  0  0  0  0  0  0  0  0  0
    2.1782    6.9506   -2.5057 O   0  0  0  0  0  0  0  0  0  0  0  0
    1.0458    4.8028   -2.3865 C   0  0  2  0  0  0  0  0  0  0  0  0
   -0.1393    5.4375   -1.8905 O   0  0  0  0  0  0  0  0  0  0  0  0
   -1.8479    2.2905   -2.3104 H   0  0  0  0  0  0  0  0  0  0  0  0
    0.1396    2.3491   -3.4914 H   0  0  0  0  0  0  0  0  0  0  0  0
    0.1887    1.4474   -1.9736 H   0  0  0  0  0  0  0  0  0  0  0  0
    1.1617    3.3491   -0.7849 H   0  0  0  0  0  0  0  0  0  0  0  0
    3.5641    3.5136   -0.7085 H   0  0  0  0  0  0  0  0  0  0  0  0
    5.9364   -0.7617   -1.4902 H   0  0  0  0  0  0  0  0  0  0  0  0
    6.4403    0.2804   -2.7861 H   0  0  0  0  0  0  0  0  0  0  0  0
    5.1170    0.4637   -4.8913 H   0  0  0  0  0  0  0  0  0  0  0  0
    3.5632   -0.6914   -6.4189 H   0  0  0  0  0  0  0  0  0  0  0  0
    2.1507   -2.5562   -5.5925 H   0  0  0  0  0  0  0  0  0  0  0  0
    2.2945   -3.2594   -3.2173 H   0  0  0  0  0  0  0  0  0  0  0  0
    3.8428   -2.1148   -1.6740 H   0  0  0  0  0  0  0  0  0  0  0  0
    3.8134   -0.0270    1.0230 H   0  0  0  0  0  0  0  0  0  0  0  0
    3.6929    5.0229   -3.3949 H   0  0  0  0  0  0  0  0  0  0  0  0
    4.4296    6.6886   -1.9881 H   0  0  0  0  0  0  0  0  0  0  0  0
    2.1975    5.7963   -0.8395 H   0  0  0  0  0  0  0  0  0  0  0  0
    1.2525    7.2390   -2.3661 H   0  0  0  0  0  0  0  0  0  0  0  0
    0.9913    4.8251   -3.4820 H   0  0  0  0  0  0  0  0  0  0  0  0
   -0.8518    4.7602   -1.9286 H   0  0  0  0  0  0  0  0  0  0  0  0
  1  2  1  0  0  0  0
  1 23  1  0  0  0  0
  2 24  1  0  0  0  0
  2 25  1  0  0  0  0
  3  4  1  0  0  0  0
  3 21  1  0  0  0  0
  3  2  1  0  0  0  0
  3 26  1  1  0  0  0
  4  5  1  0  0  0  0
  5 17  1  0  0  0  0
  5  6  1  0  0  0  0
  5 27  1  1  0  0  0
  6  7  1  0  0  0  0
  7  8  1  0  0  0  0
  7 15  2  0  0  0  0
  8  9  1  0  0  0  0
  8 28  1  0  0  0  0
  8 29  1  0  0  0  0
  9 10  1  0  0  0  0
  9 14  2  0  0  0  0
 10 11  2  0  0  0  0
 10 30  1  0  0  0  0
 11 12  1  0  0  0  0
 11 31  1  0  0  0  0
 12 13  2  0  0  0  0
 12 32  1  0  0  0  0
 13 14  1  0  0  0  0
 13 33  1  0  0  0  0
 14 34  1  0  0  0  0
 15 16  1  0  0  0  0
 16 35  1  0  0  0  0
 17 18  1  0  0  0  0
 17 19  1  0  0  0  0
 17 36  1  6  0  0  0
 18 37  1  0  0  0  0
 19 20  1  0  0  0  0
 19 21  1  0  0  0  0
 19 38  1  1  0  0  0
 20 39  1  0  0  0  0
 21 22  1  0  0  0  0
 21 40  1  6  0  0  0
 22 41  1  0  0  0  0
M  END
$$$$
