CHEBI:17434
 OpenBabel04242416343D

 13 12  0  0  0  0  0  0  0  0999 V2000
    1.1134    0.0407    0.0442 C   0  0  0  0  0  0  0  0  0  0  0  0
    2.8884    0.3231    0.2431 S   0  3  0  0  0  0  0  0  0  0  0  0
    3.3172   -1.3734    0.6988 C   0  0  0  0  0  0  0  0  0  0  0  0
    3.3172    0.1809   -1.5078 C   0  0  0  0  0  0  0  0  0  0  0  0
    0.6674   -0.1028    1.0316 H   0  0  0  0  0  0  0  0  0  0  0  0
    0.9157   -0.8379   -0.5747 H   0  0  0  0  0  0  0  0  0  0  0  0
    0.6674    0.9221   -0.4234 H   0  0  0  0  0  0  0  0  0  0  0  0
    2.9520   -1.5688    1.7102 H   0  0  0  0  0  0  0  0  0  0  0  0
    4.4051   -1.4764    0.6868 H   0  0  0  0  0  0  0  0  0  0  0  0
    2.8764   -2.0961    0.0077 H   0  0  0  0  0  0  0  0  0  0  0  0
    2.9520    1.0674   -2.0323 H   0  0  0  0  0  0  0  0  0  0  0  0
    2.8764   -0.7132   -1.9555 H   0  0  0  0  0  0  0  0  0  0  0  0
    4.4051    0.1349   -1.6007 H   0  0  0  0  0  0  0  0  0  0  0  0
  1  2  1  0  0  0  0
  1  5  1  0  0  0  0
  1  6  1  0  0  0  0
  1  7  1  0  0  0  0
  2  3  1  0  0  0  0
  2  4  1  0  0  0  0
  3  8  1  0  0  0  0
  3  9  1  0  0  0  0
  3 10  1  0  0  0  0
  4 11  1  0  0  0  0
  4 12  1  0  0  0  0
  4 13  1  0  0  0  0
M  CHG  1   2   1
M  END
$$$$
