CHEBI:16820
 OpenBabel04242415193D

 38 38  0  0  1  0  0  0  0  0999 V2000
    8.8208    3.0154   -0.3462 N   0  0  0  0  0  0  0  0  0  0  0  0
    7.9225    2.2688    0.1793 C   0  0  0  0  0  0  0  0  0  0  0  0
    6.6004    2.4610    0.0062 N   0  0  0  0  0  0  0  0  0  0  0  0
    8.1637    1.1965    0.9691 N   0  0  0  0  0  0  0  0  0  0  0  0
    9.5217    0.8830    1.3897 C   0  0  0  0  0  0  0  0  0  0  0  0
    9.5363   -0.2309    2.4390 C   0  0  0  0  0  0  0  0  0  0  0  0
    9.0423    0.2572    3.8080 C   0  0  0  0  0  0  0  0  0  0  0  0
    9.1467   -0.8228    4.8915 C   0  0  1  0  0  0  0  0  0  0  0  0
   10.5505   -1.1097    5.1952 N   0  0  0  0  0  0  0  0  0  0  0  0
   10.9122   -2.3594    5.6589 C   0  0  0  0  0  0  0  0  0  0  0  0
   10.1445   -3.3127    5.6994 O   0  0  0  0  0  0  0  0  0  0  0  0
   12.3030   -2.4841    6.1745 C   0  0  0  0  0  0  0  0  0  0  0  0
   12.5632   -3.4255    7.1774 C   0  0  0  0  0  0  0  0  0  0  0  0
   13.8546   -3.5644    7.6887 C   0  0  0  0  0  0  0  0  0  0  0  0
   14.8901   -2.7727    7.1920 C   0  0  0  0  0  0  0  0  0  0  0  0
   14.6395   -1.8454    6.1802 C   0  0  0  0  0  0  0  0  0  0  0  0
   13.3483   -1.7002    5.6681 C   0  0  0  0  0  0  0  0  0  0  0  0
    8.4036   -0.3311    6.1416 C   0  0  0  0  0  0  0  0  0  0  0  0
    7.2019   -0.1225    6.2252 O   0  0  0  0  0  0  0  0  0  0  0  0
    9.2116   -0.0202    7.1805 O   0  0  0  0  0  0  0  0  0  0  0  0
    8.3807    3.7694   -0.8741 H   0  0  0  0  0  0  0  0  0  0  0  0
    6.3622    3.0879   -0.7512 H   0  0  0  0  0  0  0  0  0  0  0  0
    6.0929    1.5877   -0.0807 H   0  0  0  0  0  0  0  0  0  0  0  0
    7.4645    1.0879    1.6924 H   0  0  0  0  0  0  0  0  0  0  0  0
   10.0151    1.7753    1.7930 H   0  0  0  0  0  0  0  0  0  0  0  0
   10.0931    0.5523    0.5146 H   0  0  0  0  0  0  0  0  0  0  0  0
   10.5669   -0.5934    2.5346 H   0  0  0  0  0  0  0  0  0  0  0  0
    8.9259   -1.0782    2.1035 H   0  0  0  0  0  0  0  0  0  0  0  0
    7.9991    0.5835    3.7219 H   0  0  0  0  0  0  0  0  0  0  0  0
    9.6189    1.1411    4.1116 H   0  0  0  0  0  0  0  0  0  0  0  0
    8.6532   -1.7462    4.5674 H   0  0  0  0  0  0  0  0  0  0  0  0
   11.0841   -0.3328    5.5660 H   0  0  0  0  0  0  0  0  0  0  0  0
   11.7592   -4.0485    7.5642 H   0  0  0  0  0  0  0  0  0  0  0  0
   14.0524   -4.2930    8.4711 H   0  0  0  0  0  0  0  0  0  0  0  0
   15.8966   -2.8858    7.5879 H   0  0  0  0  0  0  0  0  0  0  0  0
   15.4531   -1.2424    5.7842 H   0  0  0  0  0  0  0  0  0  0  0  0
   13.1783   -0.9946    4.8598 H   0  0  0  0  0  0  0  0  0  0  0  0
    8.5885    0.2678    7.8808 H   0  0  0  0  0  0  0  0  0  0  0  0
  1  2  2  0  0  0  0
  1 21  1  0  0  0  0
  2  3  1  0  0  0  0
  2  4  1  0  0  0  0
  3 22  1  0  0  0  0
  3 23  1  0  0  0  0
  4  5  1  0  0  0  0
  4 24  1  0  0  0  0
  5  6  1  0  0  0  0
  5 25  1  0  0  0  0
  5 26  1  0  0  0  0
  6  7  1  0  0  0  0
  6 27  1  0  0  0  0
  6 28  1  0  0  0  0
  7  8  1  0  0  0  0
  7 29  1  0  0  0  0
  7 30  1  0  0  0  0
  8  9  1  0  0  0  0
  8 18  1  0  0  0  0
  8 31  1  6  0  0  0
  9 10  1  0  0  0  0
  9 32  1  0  0  0  0
 10 11  2  0  0  0  0
 10 12  1  0  0  0  0
 12 13  1  0  0  0  0
 12 17  2  0  0  0  0
 13 14  2  0  0  0  0
 13 33  1  0  0  0  0
 14 15  1  0  0  0  0
 14 34  1  0  0  0  0
 15 16  2  0  0  0  0
 15 35  1  0  0  0  0
 16 17  1  0  0  0  0
 16 36  1  0  0  0  0
 17 37  1  0  0  0  0
 18 19  2  0  0  0  0
 18 20  1  0  0  0  0
 20 38  1  0  0  0  0
M  END
$$$$
