CHEBI:16368
 OpenBabel04242414153D

 24 25  0  0  1  0  0  0  0  0999 V2000
    3.0623    0.0802   -1.6133 C   0  0  0  0  0  0  0  0  0  0  0  0
    2.6981    0.0361   -0.1317 C   0  0  2  0  0  0  0  0  0  0  0  0
    3.1088    1.2740    0.6554 C   0  0  0  0  0  0  0  0  0  0  0  0
    4.5999    1.2946    0.8194 C   0  0  0  0  0  0  0  0  0  0  0  0
    5.2884    2.5139    0.9055 C   0  0  0  0  0  0  0  0  0  0  0  0
    6.6696    2.5102    1.0601 C   0  0  0  0  0  0  0  0  0  0  0  0
    7.3789    3.6711    1.1449 O   0  0  0  0  0  0  0  0  0  0  0  0
    7.3778    1.3168    1.1287 C   0  0  0  0  0  0  0  0  0  0  0  0
    6.6931    0.1011    1.0601 C   0  0  0  0  0  0  0  0  0  0  0  0
    7.4154   -1.0572    1.1039 O   0  0  0  0  0  0  0  0  0  0  0  0
    5.2971    0.0752    0.9217 C   0  0  0  0  0  0  0  0  0  0  0  0
    4.5283   -1.2096    0.9261 C   0  0  0  0  0  0  0  0  0  0  0  0
    4.9796   -2.2607    1.3573 O   0  0  0  0  0  0  0  0  0  0  0  0
    3.2447   -1.1518    0.4709 O   0  0  0  0  0  0  0  0  0  0  0  0
    2.6177    0.9521   -2.1025 H   0  0  0  0  0  0  0  0  0  0  0  0
    2.6975   -0.8229   -2.1152 H   0  0  0  0  0  0  0  0  0  0  0  0
    4.1449    0.1045   -1.7725 H   0  0  0  0  0  0  0  0  0  0  0  0
    1.6080   -0.0598   -0.0617 H   0  0  0  0  0  0  0  0  0  0  0  0
    2.6644    1.2450    1.6578 H   0  0  0  0  0  0  0  0  0  0  0  0
    2.7522    2.1786    0.1498 H   0  0  0  0  0  0  0  0  0  0  0  0
    4.7408    3.4505    0.8477 H   0  0  0  0  0  0  0  0  0  0  0  0
    6.7651    4.4236    1.1120 H   0  0  0  0  0  0  0  0  0  0  0  0
    8.4579    1.3507    1.2347 H   0  0  0  0  0  0  0  0  0  0  0  0
    8.3433   -0.8657    1.3147 H   0  0  0  0  0  0  0  0  0  0  0  0
  1 15  1  0  0  0  0
  1 16  1  0  0  0  0
  1 17  1  0  0  0  0
  2  3  1  0  0  0  0
  2 14  1  0  0  0  0
  2  1  1  0  0  0  0
  2 18  1  1  0  0  0
  3  4  1  0  0  0  0
  3 19  1  0  0  0  0
  3 20  1  0  0  0  0
  4  5  1  0  0  0  0
  4 11  2  0  0  0  0
  5  6  2  0  0  0  0
  5 21  1  0  0  0  0
  6  7  1  0  0  0  0
  6  8  1  0  0  0  0
  7 22  1  0  0  0  0
  8  9  2  0  0  0  0
  8 23  1  0  0  0  0
  9 10  1  0  0  0  0
  9 11  1  0  0  0  0
 10 24  1  0  0  0  0
 11 12  1  0  0  0  0
 12 13  2  0  0  0  0
 12 14  1  0  0  0  0
M  END
$$$$
