CHEBI:18338
 OpenBabel04252409253D

 41 41  0  0  0  0  0  0  0  0999 V2000
    3.4536   -3.2867   -6.4373 C   0  0  0  0  0  0  0  0  0  0  0  0
    3.0272   -2.5201   -5.2258 C   0  0  0  0  0  0  0  0  0  0  0  0
    3.5540   -1.3009   -5.0391 N   0  0  0  0  0  0  0  0  0  0  0  0
    3.2082   -0.6703   -3.9049 C   0  0  0  0  0  0  0  0  0  0  0  0
    2.3752   -1.2052   -2.9421 C   0  0  0  0  0  0  0  0  0  0  0  0
    2.0331   -0.5357   -1.6416 C   0  0  0  0  0  0  0  0  0  0  0  0
    2.7705    0.7258   -1.4576 N   0  3  0  0  0  0  0  0  0  0  0  0
    2.1669    1.8828   -1.6762 C   0  0  0  0  0  0  0  0  0  0  0  0
    3.2350    3.1943   -1.4437 S   0  0  0  0  0  0  0  0  0  0  0  0
    4.4713    2.1514   -0.8561 C   0  0  0  0  0  0  0  0  0  0  0  0
    5.7330    2.7320   -0.2780 C   0  0  0  0  0  0  0  0  0  0  0  0
    5.6151    2.9738    1.2320 C   0  0  0  0  0  0  0  0  0  0  0  0
    5.4820    1.7270    1.8947 O   0  0  0  0  0  0  0  0  0  0  0  0
    4.1283    1.3820    2.6855 P   0  0  0  0  0  0  0  0  0  0  0  0
    3.9817   -0.0637    3.0101 O   0  0  0  0  0  0  0  0  0  0  0  0
    4.1182    2.3425    3.9568 O   0  0  0  0  0  0  0  0  0  0  0  0
    2.9724    1.9860    1.7789 O   0  0  0  0  0  0  0  0  0  0  0  0
    4.0646    0.8297   -0.9519 C   0  0  0  0  0  0  0  0  0  0  0  0
    4.8094   -0.3983   -0.5709 C   0  0  0  0  0  0  0  0  0  0  0  0
    1.8598   -2.4509   -3.2522 C   0  0  0  0  0  0  0  0  0  0  0  0
    0.9999   -3.1246   -2.3927 N   0  0  0  0  0  0  0  0  0  0  0  0
    2.1869   -3.1193   -4.3658 N   0  0  0  0  0  0  0  0  0  0  0  0
    0.3983    0.5670    1.1810 Cl  0  5  0  0  0  0  0  0  0  0  0  0
    3.8006   -2.6079   -7.2225 H   0  0  0  0  0  0  0  0  0  0  0  0
    2.6198   -3.8738   -6.8328 H   0  0  0  0  0  0  0  0  0  0  0  0
    4.2712   -3.9638   -6.1730 H   0  0  0  0  0  0  0  0  0  0  0  0
    3.6673    0.3089   -3.8077 H   0  0  0  0  0  0  0  0  0  0  0  0
    2.2452   -1.2050   -0.8016 H   0  0  0  0  0  0  0  0  0  0  0  0
    0.9571   -0.3268   -1.6517 H   0  0  0  0  0  0  0  0  0  0  0  0
    1.1327    1.9954   -1.9792 H   0  0  0  0  0  0  0  0  0  0  0  0
    5.9809    3.6746   -0.7805 H   0  0  0  0  0  0  0  0  0  0  0  0
    6.5618    2.0413   -0.4757 H   0  0  0  0  0  0  0  0  0  0  0  0
    4.7889    3.6516    1.4718 H   0  0  0  0  0  0  0  0  0  0  0  0
    6.5360    3.4420    1.5949 H   0  0  0  0  0  0  0  0  0  0  0  0
    3.4278    2.0587    4.5842 H   0  0  0  0  0  0  0  0  0  0  0  0
    2.1128    1.4712    1.7998 H   0  0  0  0  0  0  0  0  0  0  0  0
    5.0607   -0.9849   -1.4596 H   0  0  0  0  0  0  0  0  0  0  0  0
    4.2321   -1.0230    0.1156 H   0  0  0  0  0  0  0  0  0  0  0  0
    5.7506   -0.1582   -0.0677 H   0  0  0  0  0  0  0  0  0  0  0  0
    0.1519   -2.6165   -2.1583 H   0  0  0  0  0  0  0  0  0  0  0  0
    0.7608   -4.0135   -2.8323 H   0  0  0  0  0  0  0  0  0  0  0  0
  1  2  1  0  0  0  0
  1 24  1  0  0  0  0
  1 25  1  0  0  0  0
  1 26  1  0  0  0  0
  2  3  1  0  0  0  0
  2 22  2  0  0  0  0
  3  4  2  0  0  0  0
  4  5  1  0  0  0  0
  4 27  1  0  0  0  0
  5  6  1  0  0  0  0
  5 20  2  0  0  0  0
  6  7  1  0  0  0  0
  6 28  1  0  0  0  0
  6 29  1  0  0  0  0
  7  8  2  0  0  0  0
  7 18  1  0  0  0  0
  8  9  1  0  0  0  0
  8 30  1  0  0  0  0
  9 10  1  0  0  0  0
 10 11  1  0  0  0  0
 10 18  2  0  0  0  0
 11 12  1  0  0  0  0
 11 31  1  0  0  0  0
 11 32  1  0  0  0  0
 12 13  1  0  0  0  0
 12 33  1  0  0  0  0
 12 34  1  0  0  0  0
 13 14  1  0  0  0  0
 14 15  2  0  0  0  0
 14 16  1  0  0  0  0
 14 17  1  0  0  0  0
 16 35  1  0  0  0  0
 17 36  1  0  0  0  0
 18 19  1  0  0  0  0
 19 37  1  0  0  0  0
 19 38  1  0  0  0  0
 19 39  1  0  0  0  0
 20 21  1  0  0  0  0
 20 22  1  0  0  0  0
 21 40  1  0  0  0  0
 21 41  1  0  0  0  0
M  CHG  2   7   1  23  -1
M  END
$$$$
