CHEBI:15403
 OpenBabel04242411493D

 25 26  0  0  1  0  0  0  0  0999 V2000
    2.1843    0.4330   -0.6775 C   0  0  0  0  0  0  0  0  0  0  0  0
    2.2235   -0.0474    0.5696 C   0  0  0  0  0  0  0  0  0  0  0  0
    1.8992   -1.4875    0.8564 C   0  0  0  0  0  0  0  0  0  0  0  0
    1.6072   -2.3280    0.0217 O   0  0  0  0  0  0  0  0  0  0  0  0
    1.9810   -1.7123    2.3582 C   0  0  0  0  0  0  0  0  0  0  0  0
    2.4468   -0.3665    2.9435 C   0  0  2  0  0  0  0  0  0  0  0  0
    3.5300   -0.4498    4.0177 C   0  0  0  0  0  0  0  0  0  0  0  0
    3.7201    0.8299    4.8349 C   0  0  0  0  0  0  0  0  0  0  0  0
    4.8785   -0.8682    3.4189 C   0  0  0  0  0  0  0  0  0  0  0  0
    1.4749    0.8029    2.8697 C   0  0  0  0  0  0  0  0  0  0  0  0
    2.5366    0.6634    1.8167 C   0  0  2  0  0  0  0  0  0  0  0  0
    1.9259   -0.2050   -1.5181 H   0  0  0  0  0  0  0  0  0  0  0  0
    2.4046    1.4743   -0.8838 H   0  0  0  0  0  0  0  0  0  0  0  0
    2.6911   -2.5185    2.5575 H   0  0  0  0  0  0  0  0  0  0  0  0
    0.9928   -1.9759    2.7462 H   0  0  0  0  0  0  0  0  0  0  0  0
    3.2221   -1.2320    4.7241 H   0  0  0  0  0  0  0  0  0  0  0  0
    4.0070    1.6762    4.2017 H   0  0  0  0  0  0  0  0  0  0  0  0
    4.5043    0.6968    5.5883 H   0  0  0  0  0  0  0  0  0  0  0  0
    2.8023    1.0971    5.3685 H   0  0  0  0  0  0  0  0  0  0  0  0
    5.2382   -0.1329    2.6914 H   0  0  0  0  0  0  0  0  0  0  0  0
    4.8098   -1.8325    2.9064 H   0  0  0  0  0  0  0  0  0  0  0  0
    5.6376   -0.9679    4.2024 H   0  0  0  0  0  0  0  0  0  0  0  0
    1.5607    1.6425    3.5491 H   0  0  0  0  0  0  0  0  0  0  0  0
    0.4408    0.6042    2.6013 H   0  0  0  0  0  0  0  0  0  0  0  0
    3.3629    1.3624    1.8011 H   0  0  0  0  0  0  0  0  0  0  0  0
  1  2  2  0  0  0  0
  1 12  1  0  0  0  0
  1 13  1  0  0  0  0
  2  3  1  0  0  0  0
  2 11  1  0  0  0  0
  3  5  1  0  0  0  0
  3  4  2  0  0  0  0
  5  6  1  0  0  0  0
  5 14  1  0  0  0  0
  5 15  1  0  0  0  0
  6 10  1  0  0  0  0
  6 11  1  0  0  0  0
  6  7  1  1  0  0  0
  7  8  1  0  0  0  0
  7  9  1  0  0  0  0
  7 16  1  0  0  0  0
  8 17  1  0  0  0  0
  8 18  1  0  0  0  0
  8 19  1  0  0  0  0
  9 20  1  0  0  0  0
  9 21  1  0  0  0  0
  9 22  1  0  0  0  0
 10 11  1  0  0  0  0
 10 23  1  0  0  0  0
 10 24  1  0  0  0  0
 11 25  1  1  0  0  0
M  END
$$$$
