CHEBI:17154
 OpenBabel04242415563D

 15 15  0  0  0  0  0  0  0  0999 V2000
    3.0848   -0.1247   -1.1600 N   0  0  0  0  0  0  0  0  0  0  0  0
    2.4285    0.1204    0.0147 C   0  0  0  0  0  0  0  0  0  0  0  0
    1.2379   -0.1420    0.1312 O   0  0  0  0  0  0  0  0  0  0  0  0
    3.2083    0.6726    1.1444 C   0  0  0  0  0  0  0  0  0  0  0  0
    2.7320    0.5205    2.4484 C   0  0  0  0  0  0  0  0  0  0  0  0
    3.4622    1.0443    3.5131 C   0  0  0  0  0  0  0  0  0  0  0  0
    4.6456    1.7096    3.2341 C   0  0  0  0  0  0  0  0  0  0  0  0
    5.1312    1.8855    1.9851 N   0  0  0  0  0  0  0  0  0  0  0  0
    4.3955    1.3704    0.9677 C   0  0  0  0  0  0  0  0  0  0  0  0
    2.5456   -0.5893   -1.8809 H   0  0  0  0  0  0  0  0  0  0  0  0
    4.0908   -0.1556   -1.2450 H   0  0  0  0  0  0  0  0  0  0  0  0
    1.7973   -0.0039    2.6341 H   0  0  0  0  0  0  0  0  0  0  0  0
    3.1138    0.9376    4.5345 H   0  0  0  0  0  0  0  0  0  0  0  0
    5.2492    2.1360    4.0308 H   0  0  0  0  0  0  0  0  0  0  0  0
    4.8067    1.5675   -0.0170 H   0  0  0  0  0  0  0  0  0  0  0  0
  1  2  1  0  0  0  0
  1 10  1  0  0  0  0
  1 11  1  0  0  0  0
  2  3  2  0  0  0  0
  2  4  1  0  0  0  0
  4  5  1  0  0  0  0
  4  9  2  0  0  0  0
  5  6  2  0  0  0  0
  5 12  1  0  0  0  0
  6  7  1  0  0  0  0
  6 13  1  0  0  0  0
  7  8  2  0  0  0  0
  7 14  1  0  0  0  0
  8  9  1  0  0  0  0
  9 15  1  0  0  0  0
M  END
$$$$
