CHEBI:16996
 OpenBabel04242415403D

 26 26  0  0  1  0  0  0  0  0999 V2000
    2.8617   -1.6907    2.2314 N   0  0  0  0  0  0  0  0  0  0  0  0
    2.3848   -0.3368    1.8610 C   0  0  2  0  0  0  0  0  0  0  0  0
    3.4524    0.3878    1.0107 C   0  0  0  0  0  0  0  0  0  0  0  0
    3.8593   -0.3962   -0.1090 O   0  0  0  0  0  0  0  0  0  0  0  0
    2.8578   -0.4901   -1.3513 P   0  0  0  0  0  0  0  0  0  0  0  0
    2.0677    0.7184   -1.7105 O   0  0  0  0  0  0  0  0  0  0  0  0
    3.8002   -1.0009   -2.5340 O   0  0  0  0  0  0  0  0  0  0  0  0
    1.9816   -1.7907   -1.0642 O   0  0  0  0  0  0  0  0  0  0  0  0
    2.0188    0.4519    3.1330 C   0  0  0  0  0  0  0  0  0  0  0  0
    1.3173    1.7355    2.8458 C   0  0  0  0  0  0  0  0  0  0  0  0
   -0.0081    2.0649    3.0345 C   0  0  0  0  0  0  0  0  0  0  0  0
   -0.1273    3.3516    2.5880 N   0  0  0  0  0  0  0  0  0  0  0  0
    1.1044    3.7532    2.1586 C   0  0  0  0  0  0  0  0  0  0  0  0
    2.0009    2.8084    2.3221 N   0  0  0  0  0  0  0  0  0  0  0  0
    3.7563   -1.6093    2.7152 H   0  0  0  0  0  0  0  0  0  0  0  0
    3.0814   -2.1840    1.3599 H   0  0  0  0  0  0  0  0  0  0  0  0
    1.4827   -0.4787    1.2543 H   0  0  0  0  0  0  0  0  0  0  0  0
    3.0963    1.3520    0.6405 H   0  0  0  0  0  0  0  0  0  0  0  0
    4.3494    0.5790    1.6104 H   0  0  0  0  0  0  0  0  0  0  0  0
    4.3243   -0.2655   -2.8990 H   0  0  0  0  0  0  0  0  0  0  0  0
    1.3030   -1.9089   -1.7518 H   0  0  0  0  0  0  0  0  0  0  0  0
    2.9195    0.6606    3.7242 H   0  0  0  0  0  0  0  0  0  0  0  0
    1.3680   -0.1649    3.7676 H   0  0  0  0  0  0  0  0  0  0  0  0
   -0.8479    1.5107    3.4292 H   0  0  0  0  0  0  0  0  0  0  0  0
   -0.9708    3.9080    2.5709 H   0  0  0  0  0  0  0  0  0  0  0  0
    1.2852    4.7346    1.7409 H   0  0  0  0  0  0  0  0  0  0  0  0
  1 15  1  0  0  0  0
  1 16  1  0  0  0  0
  2  9  1  0  0  0  0
  2  3  1  0  0  0  0
  2  1  1  0  0  0  0
  2 17  1  6  0  0  0
  3  4  1  0  0  0  0
  3 18  1  0  0  0  0
  3 19  1  0  0  0  0
  4  5  1  0  0  0  0
  5  6  2  0  0  0  0
  5  7  1  0  0  0  0
  5  8  1  0  0  0  0
  7 20  1  0  0  0  0
  8 21  1  0  0  0  0
  9 10  1  0  0  0  0
  9 22  1  0  0  0  0
  9 23  1  0  0  0  0
 10 11  2  0  0  0  0
 10 14  1  0  0  0  0
 11 12  1  0  0  0  0
 11 24  1  0  0  0  0
 12 13  1  0  0  0  0
 12 25  1  0  0  0  0
 13 14  2  0  0  0  0
 13 26  1  0  0  0  0
M  END
$$$$
