CHEBI:16594
 OpenBabel04242414513D

 20 19  0  0  0  0  0  0  0  0999 V2000
    3.2202    0.1471    2.6091 C   0  0  0  0  0  0  0  0  0  0  0  0
    2.7515    0.7751    1.2977 C   0  0  0  0  0  0  0  0  0  0  0  0
    2.8900    2.2298    1.3822 N   0  0  0  0  0  0  0  0  0  0  0  0
    3.4251    0.1485    0.0570 C   0  0  0  0  0  0  0  0  0  0  0  0
    4.9568    0.1735    0.0063 C   0  0  0  0  0  0  0  0  0  0  0  0
    5.4149   -0.7035   -1.1298 N   0  0  0  0  0  0  0  0  0  0  0  0
    5.4685    1.6376   -0.2621 C   0  0  0  0  0  0  0  0  0  0  0  0
    5.6803    1.9136   -1.4813 O   0  0  0  0  0  0  0  0  0  0  0  0
    5.6078    2.3564    0.7684 O   0  5  0  0  0  0  0  0  0  0  0  0
    2.6130    0.5052    3.4485 H   0  0  0  0  0  0  0  0  0  0  0  0
    4.2645    0.3885    2.8329 H   0  0  0  0  0  0  0  0  0  0  0  0
    3.1227   -0.9432    2.5732 H   0  0  0  0  0  0  0  0  0  0  0  0
    1.6771    0.5721    1.2060 H   0  0  0  0  0  0  0  0  0  0  0  0
    3.9024    2.4448    1.5062 H   0  0  0  0  0  0  0  0  0  0  0  0
    2.7216    2.6338    0.4595 H   0  0  0  0  0  0  0  0  0  0  0  0
    3.0178    0.6331   -0.8416 H   0  0  0  0  0  0  0  0  0  0  0  0
    3.0930   -0.8983    0.0065 H   0  0  0  0  0  0  0  0  0  0  0  0
    5.4019   -0.2194    0.9250 H   0  0  0  0  0  0  0  0  0  0  0  0
    6.4366   -0.6427   -1.1130 H   0  0  0  0  0  0  0  0  0  0  0  0
    5.2152   -0.1175   -1.9582 H   0  0  0  0  0  0  0  0  0  0  0  0
  1  2  1  0  0  0  0
  1 10  1  0  0  0  0
  1 11  1  0  0  0  0
  1 12  1  0  0  0  0
  2  3  1  0  0  0  0
  2  4  1  0  0  0  0
  2 13  1  0  0  0  0
  3 14  1  0  0  0  0
  3 15  1  0  0  0  0
  4  5  1  0  0  0  0
  4 16  1  0  0  0  0
  4 17  1  0  0  0  0
  5  6  1  0  0  0  0
  5  7  1  0  0  0  0
  5 18  1  0  0  0  0
  6 19  1  0  0  0  0
  6 20  1  0  0  0  0
  7  8  2  0  0  0  0
  7  9  1  0  0  0  0
M  CHG  1   9  -1
M  END
$$$$
