CHEBI:15774
 OpenBabel04242413143D

 61 63  0  0  1  0  0  0  0  0999 V2000
    3.4805   -0.6770   -1.8648 C   0  0  0  0  0  0  0  0  0  0  0  0
    4.1871    0.4183   -2.5923 C   0  0  0  0  0  0  0  0  0  0  0  0
    4.5593    1.5767   -2.0341 C   0  0  0  0  0  0  0  0  0  0  0  0
    5.2416    2.5569   -2.7306 N   0  0  0  0  0  0  0  0  0  0  0  0
    5.7031    3.7796   -2.0760 C   0  0  1  0  0  0  0  0  0  0  0  0
    5.0861    5.0518   -2.6495 C   0  0  0  0  0  0  0  0  0  0  0  0
    5.2477    6.0125   -1.5001 C   0  0  2  0  0  0  0  0  0  0  0  0
    6.5925    6.5019   -1.4854 O   0  0  0  0  0  0  0  0  0  0  0  0
    5.0059    5.1126   -0.2857 C   0  0  1  0  0  0  0  0  0  0  0  0
    3.5387    5.1189    0.1586 C   0  0  0  0  0  0  0  0  0  0  0  0
    3.2228    6.4385    0.5786 O   0  0  0  0  0  0  0  0  0  0  0  0
    1.6395    6.8348    1.1523 P   0  0  0  0  0  0  0  0  0  0  0  0
    1.0065    6.1662   -0.0701 O   0  0  0  0  0  0  0  0  0  0  0  0
    1.7765    5.7137    2.3355 O   0  0  0  0  0  0  0  0  0  0  0  0
    0.0563    7.2312    1.7260 O   0  0  0  0  0  0  0  0  0  0  0  0
   -0.1540    8.6784    2.3496 P   0  0  0  0  0  0  0  0  0  0  0  0
    0.6948    8.9982    3.5329 O   0  0  0  0  0  0  0  0  0  0  0  0
    0.0309    9.6596    1.1021 O   0  0  0  0  0  0  0  0  0  0  0  0
   -1.7353    8.6975    2.5893 O   0  0  0  0  0  0  0  0  0  0  0  0
   -2.2989    9.8625    3.1591 C   0  0  1  0  0  0  0  0  0  0  0  0
   -2.0217   10.9822    2.3104 O   0  0  0  0  0  0  0  0  0  0  0  0
   -2.6682   12.1883    2.7549 C   0  0  1  0  0  0  0  0  0  0  0  0
   -2.2560   13.3056    1.8021 C   0  0  0  0  0  0  0  0  0  0  0  0
   -4.1957   12.0250    2.7977 C   0  0  2  0  0  0  0  0  0  0  0  0
   -4.8222   13.2051    3.3056 O   0  0  0  0  0  0  0  0  0  0  0  0
   -4.5584   10.8444    3.7041 C   0  0  1  0  0  0  0  0  0  0  0  0
   -5.9764   10.6275    3.6312 O   0  0  0  0  0  0  0  0  0  0  0  0
   -3.8108    9.5879    3.2768 C   0  0  1  0  0  0  0  0  0  0  0  0
   -4.3574    9.1696    2.0060 O   0  0  0  0  0  0  0  0  0  0  0  0
    5.3827    3.7748   -0.6706 O   0  0  0  0  0  0  0  0  0  0  0  0
    5.5950    2.3820   -4.0624 C   0  0  0  0  0  0  0  0  0  0  0  0
    6.2457    3.1931   -4.7178 O   0  0  0  0  0  0  0  0  0  0  0  0
    5.1699    1.2177   -4.6428 N   0  0  0  0  0  0  0  0  0  0  0  0
    4.5109    0.1996   -4.0192 C   0  0  0  0  0  0  0  0  0  0  0  0
    4.2126   -0.8375   -4.6031 O   0  0  0  0  0  0  0  0  0  0  0  0
    3.2763   -0.4071   -0.8231 H   0  0  0  0  0  0  0  0  0  0  0  0
    4.0907   -1.5862   -1.8577 H   0  0  0  0  0  0  0  0  0  0  0  0
    2.5225   -0.9031   -2.3436 H   0  0  0  0  0  0  0  0  0  0  0  0
    4.3451    1.7699   -0.9867 H   0  0  0  0  0  0  0  0  0  0  0  0
    6.7973    3.8147   -2.1608 H   0  0  0  0  0  0  0  0  0  0  0  0
    4.0229    4.8994   -2.8698 H   0  0  0  0  0  0  0  0  0  0  0  0
    5.5874    5.3822   -3.5637 H   0  0  0  0  0  0  0  0  0  0  0  0
    4.5816    6.8778   -1.5553 H   0  0  0  0  0  0  0  0  0  0  0  0
    6.7070    7.0692   -2.2687 H   0  0  0  0  0  0  0  0  0  0  0  0
    5.6446    5.4161    0.5521 H   0  0  0  0  0  0  0  0  0  0  0  0
    3.4018    4.4125    0.9834 H   0  0  0  0  0  0  0  0  0  0  0  0
    2.8906    4.7986   -0.6629 H   0  0  0  0  0  0  0  0  0  0  0  0
    2.1647    6.0662    3.1554 H   0  0  0  0  0  0  0  0  0  0  0  0
   -0.4111   10.5205    1.2725 H   0  0  0  0  0  0  0  0  0  0  0  0
   -1.8596   10.0394    4.1479 H   0  0  0  0  0  0  0  0  0  0  0  0
   -2.2885   12.4449    3.7527 H   0  0  0  0  0  0  0  0  0  0  0  0
   -2.5551   13.0727    0.7742 H   0  0  0  0  0  0  0  0  0  0  0  0
   -1.1661   13.4151    1.7949 H   0  0  0  0  0  0  0  0  0  0  0  0
   -2.6972   14.2653    2.0876 H   0  0  0  0  0  0  0  0  0  0  0  0
   -4.5926   11.8555    1.7888 H   0  0  0  0  0  0  0  0  0  0  0  0
   -5.7557   12.9563    3.4650 H   0  0  0  0  0  0  0  0  0  0  0  0
   -4.3301   11.0927    4.7472 H   0  0  0  0  0  0  0  0  0  0  0  0
   -6.1109   10.0648    2.8386 H   0  0  0  0  0  0  0  0  0  0  0  0
   -4.0047    8.7611    3.9689 H   0  0  0  0  0  0  0  0  0  0  0  0
   -3.7271    8.5120    1.6467 H   0  0  0  0  0  0  0  0  0  0  0  0
    5.4176    1.0776   -5.6092 H   0  0  0  0  0  0  0  0  0  0  0  0
  1  2  1  0  0  0  0
  1 36  1  0  0  0  0
  1 37  1  0  0  0  0
  1 38  1  0  0  0  0
  2  3  2  0  0  0  0
  2 34  1  0  0  0  0
  3  4  1  0  0  0  0
  3 39  1  0  0  0  0
  4  5  1  0  0  0  0
  4 31  1  0  0  0  0
  5  6  1  0  0  0  0
  5 30  1  0  0  0  0
  5 40  1  6  0  0  0
  6  7  1  0  0  0  0
  6 41  1  0  0  0  0
  6 42  1  0  0  0  0
  7  8  1  0  0  0  0
  7  9  1  0  0  0  0
  7 43  1  6  0  0  0
  8 44  1  0  0  0  0
  9 10  1  0  0  0  0
  9 30  1  0  0  0  0
  9 45  1  1  0  0  0
 10 11  1  0  0  0  0
 10 46  1  0  0  0  0
 10 47  1  0  0  0  0
 11 12  1  0  0  0  0
 12 13  2  0  0  0  0
 12 14  1  0  0  0  0
 12 15  1  0  0  0  0
 14 48  1  0  0  0  0
 15 16  1  0  0  0  0
 16 17  2  0  0  0  0
 16 18  1  0  0  0  0
 16 19  1  0  0  0  0
 18 49  1  0  0  0  0
 19 20  1  0  0  0  0
 20 21  1  0  0  0  0
 20 28  1  0  0  0  0
 20 50  1  1  0  0  0
 21 22  1  0  0  0  0
 22 23  1  0  0  0  0
 22 24  1  0  0  0  0
 22 51  1  1  0  0  0
 23 52  1  0  0  0  0
 23 53  1  0  0  0  0
 23 54  1  0  0  0  0
 24 25  1  0  0  0  0
 24 26  1  0  0  0  0
 24 55  1  6  0  0  0
 25 56  1  0  0  0  0
 26 27  1  0  0  0  0
 26 28  1  0  0  0  0
 26 57  1  1  0  0  0
 27 58  1  0  0  0  0
 28 29  1  0  0  0  0
 28 59  1  1  0  0  0
 29 60  1  0  0  0  0
 31 32  2  0  0  0  0
 31 33  1  0  0  0  0
 33 34  1  0  0  0  0
 33 61  1  0  0  0  0
 34 35  2  0  0  0  0
M  END
$$$$
