CHEBI:27455
 OpenBabel04252410033D

  7  6  0  0  0  0  0  0  0  0999 V2000
    1.4959    1.0301    0.4446 O   0  0  0  0  0  0  0  0  0  0  0  0
    2.2653    0.1258   -0.0079 C   0  0  0  0  0  0  0  0  0  0  0  0
    2.4834   -0.1338   -1.2356 O   0  5  0  0  0  0  0  0  0  0  0  0
    3.0303   -0.7663    1.0360 C   0  0  0  0  0  0  0  0  0  0  0  0
    2.6501   -0.3451    2.7458 Cl  0  0  0  0  0  0  0  0  0  0  0  0
    2.5987   -2.5007    0.7952 Cl  0  0  0  0  0  0  0  0  0  0  0  0
    4.8101   -0.5796    0.8124 Cl  0  0  0  0  0  0  0  0  0  0  0  0
  1  2  2  0  0  0  0
  2  3  1  0  0  0  0
  2  4  1  0  0  0  0
  4  5  1  0  0  0  0
  4  6  1  0  0  0  0
  4  7  1  0  0  0  0
M  CHG  1   3  -1
M  END
$$$$
