CHEBI:17199
 OpenBabel04242416003D

 20 20  0  0  0  0  0  0  0  0999 V2000
    0.4149    1.1464   -0.6269 O   0  0  0  0  0  0  0  0  0  0  0  0
    1.0679    0.9745   -1.6464 C   0  0  0  0  0  0  0  0  0  0  0  0
    0.5439    0.3816   -2.7311 O   0  0  0  0  0  0  0  0  0  0  0  0
    2.4296    1.5606   -1.7708 C   0  0  0  0  0  0  0  0  0  0  0  0
    2.6033    2.7957   -1.1104 C   0  0  0  0  0  0  0  0  0  0  0  0
    3.8501    3.4073   -1.0927 C   0  0  0  0  0  0  0  0  0  0  0  0
    4.0617    4.6030   -0.4672 O   0  0  0  0  0  0  0  0  0  0  0  0
    4.9345    2.8029   -1.7167 C   0  0  0  0  0  0  0  0  0  0  0  0
    6.1569    3.4076   -1.7000 O   0  0  0  0  0  0  0  0  0  0  0  0
    4.7946    1.5836   -2.3610 C   0  0  0  0  0  0  0  0  0  0  0  0
    3.5385    0.9541   -2.3874 C   0  0  0  0  0  0  0  0  0  0  0  0
    3.4325   -0.3189   -3.1123 C   0  0  0  0  0  0  0  0  0  0  0  0
    2.5158   -0.6061   -3.8598 O   0  0  0  0  0  0  0  0  0  0  0  0
    4.4603   -1.1411   -2.8630 O   0  0  0  0  0  0  0  0  0  0  0  0
    1.1568    0.1468   -3.4661 H   0  0  0  0  0  0  0  0  0  0  0  0
    1.7557    3.2591   -0.6087 H   0  0  0  0  0  0  0  0  0  0  0  0
    3.2321    4.8846   -0.0411 H   0  0  0  0  0  0  0  0  0  0  0  0
    6.0255    4.2333   -1.1911 H   0  0  0  0  0  0  0  0  0  0  0  0
    5.6601    1.1320   -2.8400 H   0  0  0  0  0  0  0  0  0  0  0  0
    4.2894   -1.9561   -3.3810 H   0  0  0  0  0  0  0  0  0  0  0  0
  1  2  2  0  0  0  0
  2  3  1  0  0  0  0
  2  4  1  0  0  0  0
  3 15  1  0  0  0  0
  4  5  1  0  0  0  0
  4 11  2  0  0  0  0
  5  6  2  0  0  0  0
  5 16  1  0  0  0  0
  6  7  1  0  0  0  0
  6  8  1  0  0  0  0
  7 17  1  0  0  0  0
  8  9  1  0  0  0  0
  8 10  2  0  0  0  0
  9 18  1  0  0  0  0
 10 11  1  0  0  0  0
 10 19  1  0  0  0  0
 11 12  1  0  0  0  0
 12 13  2  0  0  0  0
 12 14  1  0  0  0  0
 14 20  1  0  0  0  0
M  END
$$$$
