CHEBI:18404
 OpenBabel04252409343D

 17 17  0  0  0  0  0  0  0  0999 V2000
    0.9704   -0.0572    0.0527 C   0  0  0  0  0  0  0  0  0  0  0  0
    2.4678   -0.0694    0.1238 C   0  0  0  0  0  0  0  0  0  0  0  0
    3.1955    1.1286    0.1592 C   0  0  0  0  0  0  0  0  0  0  0  0
    4.5936    1.1144    0.2345 C   0  0  0  0  0  0  0  0  0  0  0  0
    5.2864   -0.0964    0.2786 C   0  0  0  0  0  0  0  0  0  0  0  0
    4.5680   -1.2848    0.2481 C   0  0  0  0  0  0  0  0  0  0  0  0
    5.1889   -2.5039    0.2911 O   0  0  0  0  0  0  0  0  0  0  0  0
    3.1743   -1.2710    0.1731 C   0  0  0  0  0  0  0  0  0  0  0  0
    2.5017   -2.4629    0.1491 O   0  0  0  0  0  0  0  0  0  0  0  0
    0.5834    0.9606   -0.0637 H   0  0  0  0  0  0  0  0  0  0  0  0
    0.5452   -0.4759    0.9704 H   0  0  0  0  0  0  0  0  0  0  0  0
    0.6241   -0.6409   -0.8064 H   0  0  0  0  0  0  0  0  0  0  0  0
    2.6770    2.0846    0.1282 H   0  0  0  0  0  0  0  0  0  0  0  0
    5.1402    2.0541    0.2595 H   0  0  0  0  0  0  0  0  0  0  0  0
    6.3696   -0.0892    0.3371 H   0  0  0  0  0  0  0  0  0  0  0  0
    6.1479   -2.3499    0.3407 H   0  0  0  0  0  0  0  0  0  0  0  0
    3.2064   -3.1393    0.1927 H   0  0  0  0  0  0  0  0  0  0  0  0
  1  2  1  0  0  0  0
  1 10  1  0  0  0  0
  1 11  1  0  0  0  0
  1 12  1  0  0  0  0
  2  3  1  0  0  0  0
  2  8  2  0  0  0  0
  3  4  2  0  0  0  0
  3 13  1  0  0  0  0
  4  5  1  0  0  0  0
  4 14  1  0  0  0  0
  5  6  2  0  0  0  0
  5 15  1  0  0  0  0
  6  7  1  0  0  0  0
  6  8  1  0  0  0  0
  7 16  1  0  0  0  0
  8  9  1  0  0  0  0
  9 17  1  0  0  0  0
M  END
$$$$
