CHEBI:15894
 OpenBabel04242413263D

 40 39  0  0  0  0  0  0  0  0999 V2000
    1.8731    0.7781   -4.0000 C   0  0  0  0  0  0  0  0  0  0  0  0
    3.3509    1.0108   -3.8187 C   0  0  0  0  0  0  0  0  0  0  0  0
    3.9413    1.9977   -4.7886 C   0  0  0  0  0  0  0  0  0  0  0  0
    4.0306    0.3789   -2.8413 C   0  0  0  0  0  0  0  0  0  0  0  0
    5.5023    0.4842   -2.5339 C   0  0  0  0  0  0  0  0  0  0  0  0
    6.0823   -0.8650   -2.0822 C   0  0  0  0  0  0  0  0  0  0  0  0
    7.5716   -0.7889   -1.7919 C   0  0  0  0  0  0  0  0  0  0  0  0
    7.9308   -0.2558   -0.4316 C   0  0  0  0  0  0  0  0  0  0  0  0
    8.4560   -1.2113   -2.7173 C   0  0  0  0  0  0  0  0  0  0  0  0
    9.9571   -1.2742   -2.6182 C   0  0  0  0  0  0  0  0  0  0  0  0
   10.6734   -0.3346   -3.6031 C   0  0  0  0  0  0  0  0  0  0  0  0
   10.3749   -0.5864   -5.0757 C   0  0  0  0  0  0  0  0  0  0  0  0
   10.7669   -1.9483   -5.5844 C   0  0  0  0  0  0  0  0  0  0  0  0
    9.8256    0.3972   -5.8143 C   0  0  0  0  0  0  0  0  0  0  0  0
    9.4578    0.3150   -7.2450 C   0  0  0  0  0  0  0  0  0  0  0  0
    9.0328    1.2942   -7.8457 O   0  0  0  0  0  0  0  0  0  0  0  0
    1.6703    0.3999   -5.0074 H   0  0  0  0  0  0  0  0  0  0  0  0
    1.3215    1.7137   -3.8614 H   0  0  0  0  0  0  0  0  0  0  0  0
    1.4758    0.0487   -3.2863 H   0  0  0  0  0  0  0  0  0  0  0  0
    3.8463    1.6236   -5.8131 H   0  0  0  0  0  0  0  0  0  0  0  0
    4.9972    2.2095   -4.6072 H   0  0  0  0  0  0  0  0  0  0  0  0
    3.4083    2.9524   -4.7200 H   0  0  0  0  0  0  0  0  0  0  0  0
    3.4740   -0.2830   -2.1777 H   0  0  0  0  0  0  0  0  0  0  0  0
    5.6332    1.2292   -1.7410 H   0  0  0  0  0  0  0  0  0  0  0  0
    6.0657    0.8296   -3.4068 H   0  0  0  0  0  0  0  0  0  0  0  0
    5.8873   -1.6208   -2.8551 H   0  0  0  0  0  0  0  0  0  0  0  0
    5.5619   -1.2222   -1.1836 H   0  0  0  0  0  0  0  0  0  0  0  0
    7.6834   -0.9962    0.3363 H   0  0  0  0  0  0  0  0  0  0  0  0
    7.3715    0.6599   -0.2153 H   0  0  0  0  0  0  0  0  0  0  0  0
    8.9889   -0.0040   -0.3323 H   0  0  0  0  0  0  0  0  0  0  0  0
    8.0595   -1.5850   -3.6621 H   0  0  0  0  0  0  0  0  0  0  0  0
   10.2670   -2.3106   -2.7991 H   0  0  0  0  0  0  0  0  0  0  0  0
   10.3044   -1.0407   -1.6073 H   0  0  0  0  0  0  0  0  0  0  0  0
   11.7566   -0.4351   -3.4548 H   0  0  0  0  0  0  0  0  0  0  0  0
   10.4320    0.7025   -3.3340 H   0  0  0  0  0  0  0  0  0  0  0  0
   10.1019   -2.7151   -5.1748 H   0  0  0  0  0  0  0  0  0  0  0  0
   11.7927   -2.1826   -5.2806 H   0  0  0  0  0  0  0  0  0  0  0  0
   10.7366   -2.0327   -6.6724 H   0  0  0  0  0  0  0  0  0  0  0  0
    9.5960    1.3642   -5.3736 H   0  0  0  0  0  0  0  0  0  0  0  0
    9.5732   -0.6601   -7.7392 H   0  0  0  0  0  0  0  0  0  0  0  0
  1  2  1  0  0  0  0
  1 17  1  0  0  0  0
  1 18  1  0  0  0  0
  1 19  1  0  0  0  0
  2  3  1  0  0  0  0
  2  4  2  0  0  0  0
  3 20  1  0  0  0  0
  3 21  1  0  0  0  0
  3 22  1  0  0  0  0
  4  5  1  0  0  0  0
  4 23  1  0  0  0  0
  5  6  1  0  0  0  0
  5 24  1  0  0  0  0
  5 25  1  0  0  0  0
  6  7  1  0  0  0  0
  6 26  1  0  0  0  0
  6 27  1  0  0  0  0
  7  8  1  0  0  0  0
  7  9  2  0  0  0  0
  8 28  1  0  0  0  0
  8 29  1  0  0  0  0
  8 30  1  0  0  0  0
  9 10  1  0  0  0  0
  9 31  1  0  0  0  0
 10 11  1  0  0  0  0
 10 32  1  0  0  0  0
 10 33  1  0  0  0  0
 11 12  1  0  0  0  0
 11 34  1  0  0  0  0
 11 35  1  0  0  0  0
 12 13  1  0  0  0  0
 12 14  2  0  0  0  0
 13 36  1  0  0  0  0
 13 37  1  0  0  0  0
 13 38  1  0  0  0  0
 14 15  1  0  0  0  0
 14 39  1  0  0  0  0
 15 16  2  0  0  0  0
 15 40  1  0  0  0  0
M  END
$$$$
