CHEBI:18210
 OpenBabel04252409113D

  4  3  0  0  0  0  0  0  0  0999 V2000
    1.0370    0.1283    0.0039 O   0  5  0  0  0  0  0  0  0  0  0  0
    2.4156    0.0847   -0.0249 N   0  0  0  0  0  0  0  0  0  0  0  0
    2.9386    1.0308    0.6000 N   0  0  0  0  0  0  0  0  0  0  0  0
    4.3171    0.9856    0.5701 O   0  5  0  0  0  0  0  0  0  0  0  0
  1  2  1  0  0  0  0
  2  3  2  0  0  0  0
  3  4  1  0  0  0  0
M  CHG  2   1  -1   4  -1
M  END
$$$$
