CHEBI:17207
 OpenBabel04242416013D

 18 17  0  0  0  0  0  0  0  0999 V2000
   -2.0685    1.8141    0.4028 C   0  0  0  0  0  0  0  0  0  0  0  0
   -0.8439    1.6371   -0.1223 C   0  0  0  0  0  0  0  0  0  0  0  0
   -0.1047    0.3264   -0.0281 C   0  0  0  0  0  0  0  0  0  0  0  0
   -0.2891   -0.5248   -1.2798 C   0  0  0  0  0  0  0  0  0  0  0  0
    0.6128   -1.7240   -1.2057 C   0  0  0  0  0  0  0  0  0  0  0  0
    0.3104   -2.7646   -0.6421 O   0  0  0  0  0  0  0  0  0  0  0  0
    1.8210   -1.5251   -1.7759 O   0  0  0  0  0  0  0  0  0  0  0  0
   -0.1338    2.7034   -0.8769 C   0  0  0  0  0  0  0  0  0  0  0  0
    0.6619    2.4529   -1.7695 O   0  0  0  0  0  0  0  0  0  0  0  0
   -0.3920    3.9514   -0.4461 O   0  0  0  0  0  0  0  0  0  0  0  0
   -2.5658    1.0049    0.9331 H   0  0  0  0  0  0  0  0  0  0  0  0
   -2.6402    2.7292    0.2854 H   0  0  0  0  0  0  0  0  0  0  0  0
   -0.4451   -0.2387    0.8498 H   0  0  0  0  0  0  0  0  0  0  0  0
    0.9612    0.5204    0.1524 H   0  0  0  0  0  0  0  0  0  0  0  0
   -0.0824    0.0249   -2.2044 H   0  0  0  0  0  0  0  0  0  0  0  0
   -1.3232   -0.8792   -1.3664 H   0  0  0  0  0  0  0  0  0  0  0  0
    1.9363   -0.6373   -2.1714 H   0  0  0  0  0  0  0  0  0  0  0  0
   -0.9083    3.9895    0.3794 H   0  0  0  0  0  0  0  0  0  0  0  0
  1  2  2  0  0  0  0
  1 11  1  0  0  0  0
  1 12  1  0  0  0  0
  2  3  1  0  0  0  0
  2  8  1  0  0  0  0
  3  4  1  0  0  0  0
  3 13  1  0  0  0  0
  3 14  1  0  0  0  0
  4  5  1  0  0  0  0
  4 15  1  0  0  0  0
  4 16  1  0  0  0  0
  5  6  2  0  0  0  0
  5  7  1  0  0  0  0
  7 17  1  0  0  0  0
  8  9  2  0  0  0  0
  8 10  1  0  0  0  0
 10 18  1  0  0  0  0
M  END
$$$$
