CHEBI:16364
 OpenBabel04242414153D

 13 13  0  0  0  0  0  0  0  0999 V2000
    0.9859   -0.0474    0.0939 O   0  0  0  0  0  0  0  0  0  0  0  0
    2.3404   -0.0086   -0.0304 C   0  0  0  0  0  0  0  0  0  0  0  0
    3.0331    1.1897   -0.1341 C   0  0  0  0  0  0  0  0  0  0  0  0
    4.4214    1.1551   -0.2596 C   0  0  0  0  0  0  0  0  0  0  0  0
    5.0482   -0.0823   -0.2749 C   0  0  0  0  0  0  0  0  0  0  0  0
    6.4022   -0.1838   -0.3958 O   0  0  0  0  0  0  0  0  0  0  0  0
    4.4029   -1.2557   -0.1758 N   0  0  0  0  0  0  0  0  0  0  0  0
    3.0570   -1.1947   -0.0551 C   0  0  0  0  0  0  0  0  0  0  0  0
    0.6420    0.8611    0.0921 H   0  0  0  0  0  0  0  0  0  0  0  0
    2.5187    2.1446   -0.1195 H   0  0  0  0  0  0  0  0  0  0  0  0
    4.9833    2.0774   -0.3420 H   0  0  0  0  0  0  0  0  0  0  0  0
    6.7673    0.7090   -0.4640 H   0  0  0  0  0  0  0  0  0  0  0  0
    2.5534   -2.1532    0.0235 H   0  0  0  0  0  0  0  0  0  0  0  0
  1  2  1  0  0  0  0
  1  9  1  0  0  0  0
  2  3  1  0  0  0  0
  2  8  2  0  0  0  0
  3  4  2  0  0  0  0
  3 10  1  0  0  0  0
  4  5  1  0  0  0  0
  4 11  1  0  0  0  0
  5  6  1  0  0  0  0
  5  7  2  0  0  0  0
  6 12  1  0  0  0  0
  7  8  1  0  0  0  0
  8 13  1  0  0  0  0
M  END
$$$$
