CHEBI:18307
 OpenBabel04252409223D

 60 62  0  0  1  0  0  0  0  0999 V2000
    7.3290   -4.4605    1.9639 O   0  0  0  0  0  0  0  0  0  0  0  0
    7.8875   -3.3949    2.1835 C   0  0  0  0  0  0  0  0  0  0  0  0
    8.0211   -2.8706    3.5493 C   0  0  0  0  0  0  0  0  0  0  0  0
    8.6244   -1.6947    3.7327 C   0  0  0  0  0  0  0  0  0  0  0  0
    9.1274   -0.9440    2.6814 N   0  0  0  0  0  0  0  0  0  0  0  0
    9.6866    0.3804    2.9877 C   0  0  2  0  0  0  0  0  0  0  0  0
    8.6289    1.3526    2.8830 O   0  0  0  0  0  0  0  0  0  0  0  0
    9.1227    2.4885    2.1493 C   0  0  2  0  0  0  0  0  0  0  0  0
    8.4193    2.5172    0.7895 C   0  0  0  0  0  0  0  0  0  0  0  0
    8.9075    3.5292   -0.0695 O   0  0  0  0  0  0  0  0  0  0  0  0
    8.6012    5.1548    0.4371 P   0  0  0  0  0  0  0  0  0  0  0  0
    7.3468    5.1731   -0.4330 O   0  0  0  0  0  0  0  0  0  0  0  0
    9.7852    5.6739   -0.5565 O   0  0  0  0  0  0  0  0  0  0  0  0
    8.2950    6.7803    0.9438 O   0  0  0  0  0  0  0  0  0  0  0  0
    7.1938    6.9833    2.0775 P   0  0  0  0  0  0  0  0  0  0  0  0
    7.2364    5.9582    3.1665 O   0  0  0  0  0  0  0  0  0  0  0  0
    5.7963    7.0667    1.3070 O   0  0  0  0  0  0  0  0  0  0  0  0
    7.3870    8.5041    2.5543 O   0  0  0  0  0  0  0  0  0  0  0  0
    6.9998    8.8321    3.8758 C   0  0  0  0  0  0  0  0  0  0  0  0
    7.4715   10.1423    4.2079 O   0  0  0  0  0  0  0  0  0  0  0  0
    6.8198   11.1957    3.4598 C   0  0  2  0  0  0  0  0  0  0  0  0
    7.4402   12.5237    3.9071 C   0  0  0  0  0  0  0  0  0  0  0  0
    8.8268   12.5429    3.5598 O   0  0  0  0  0  0  0  0  0  0  0  0
    5.3005   11.1892    3.6746 C   0  0  2  0  0  0  0  0  0  0  0  0
    4.9781   11.4993    5.0390 O   0  0  0  0  0  0  0  0  0  0  0  0
    4.7294    9.8101    3.3481 C   0  0  2  0  0  0  0  0  0  0  0  0
    3.3396    9.7876    3.7201 O   0  0  0  0  0  0  0  0  0  0  0  0
    5.4760    8.7170    4.1199 C   0  0  1  0  0  0  0  0  0  0  0  0
    4.9289    7.4399    3.7299 O   0  0  0  0  0  0  0  0  0  0  0  0
   10.6471    2.3682    2.1056 C   0  0  1  0  0  0  0  0  0  0  0  0
   11.2213    2.9364    3.3038 O   0  0  0  0  0  0  0  0  0  0  0  0
   10.8913    0.8685    2.1585 C   0  0  1  0  0  0  0  0  0  0  0  0
   12.1443    0.5726    2.7888 O   0  0  0  0  0  0  0  0  0  0  0  0
    8.9555   -1.3631    1.3680 C   0  0  0  0  0  0  0  0  0  0  0  0
    9.2432   -0.7076    0.3698 O   0  0  0  0  0  0  0  0  0  0  0  0
    8.4059   -2.6065    1.2009 N   0  0  0  0  0  0  0  0  0  0  0  0
    7.6086   -3.4612    4.3555 H   0  0  0  0  0  0  0  0  0  0  0  0
    8.7201   -1.2792    4.7322 H   0  0  0  0  0  0  0  0  0  0  0  0
    9.9935    0.3718    4.0426 H   0  0  0  0  0  0  0  0  0  0  0  0
    8.8407    3.3866    2.7109 H   0  0  0  0  0  0  0  0  0  0  0  0
    7.3399    2.6465    0.9292 H   0  0  0  0  0  0  0  0  0  0  0  0
    8.5381    1.5671    0.2682 H   0  0  0  0  0  0  0  0  0  0  0  0
    9.3670    5.8278   -1.4280 H   0  0  0  0  0  0  0  0  0  0  0  0
    5.0475    7.0279    1.9395 H   0  0  0  0  0  0  0  0  0  0  0  0
    7.5174    8.1415    4.5499 H   0  0  0  0  0  0  0  0  0  0  0  0
    7.0520   11.0408    2.3983 H   0  0  0  0  0  0  0  0  0  0  0  0
    6.9583   13.3732    3.4138 H   0  0  0  0  0  0  0  0  0  0  0  0
    7.3756   12.6571    4.9917 H   0  0  0  0  0  0  0  0  0  0  0  0
    9.1979   11.7214    3.9336 H   0  0  0  0  0  0  0  0  0  0  0  0
    4.8171   11.9562    3.0589 H   0  0  0  0  0  0  0  0  0  0  0  0
    4.0185   11.3177    5.1206 H   0  0  0  0  0  0  0  0  0  0  0  0
    4.7757    9.6208    2.2696 H   0  0  0  0  0  0  0  0  0  0  0  0
    3.0561    8.8552    3.6456 H   0  0  0  0  0  0  0  0  0  0  0  0
    5.2669    8.8335    5.1905 H   0  0  0  0  0  0  0  0  0  0  0  0
    5.3471    6.7663    4.3106 H   0  0  0  0  0  0  0  0  0  0  0  0
   11.1273    2.8530    1.2511 H   0  0  0  0  0  0  0  0  0  0  0  0
   11.2908    3.8995    3.1722 H   0  0  0  0  0  0  0  0  0  0  0  0
   10.9379    0.4690    1.1479 H   0  0  0  0  0  0  0  0  0  0  0  0
   12.2973    1.3114    3.4152 H   0  0  0  0  0  0  0  0  0  0  0  0
    8.2861   -2.9195    0.2505 H   0  0  0  0  0  0  0  0  0  0  0  0
  1  2  2  0  0  0  0
  2  3  1  0  0  0  0
  2 36  1  0  0  0  0
  3  4  2  0  0  0  0
  3 37  1  0  0  0  0
  4  5  1  0  0  0  0
  4 38  1  0  0  0  0
  5  6  1  0  0  0  0
  5 34  1  0  0  0  0
  6  7  1  0  0  0  0
  6 32  1  0  0  0  0
  6 39  1  1  0  0  0
  7  8  1  0  0  0  0
  8  9  1  0  0  0  0
  8 30  1  0  0  0  0
  8 40  1  1  0  0  0
  9 10  1  0  0  0  0
  9 41  1  0  0  0  0
  9 42  1  0  0  0  0
 10 11  1  0  0  0  0
 11 12  2  0  0  0  0
 11 13  1  0  0  0  0
 11 14  1  0  0  0  0
 13 43  1  0  0  0  0
 14 15  1  0  0  0  0
 15 16  2  0  0  0  0
 15 17  1  0  0  0  0
 15 18  1  0  0  0  0
 17 44  1  0  0  0  0
 18 19  1  0  0  0  0
 19 20  1  0  0  0  0
 19 28  1  0  0  0  0
 19 45  1  0  0  0  0
 20 21  1  0  0  0  0
 21 24  1  0  0  0  0
 21 22  1  0  0  0  0
 21 46  1  6  0  0  0
 22 23  1  0  0  0  0
 22 47  1  0  0  0  0
 22 48  1  0  0  0  0
 23 49  1  0  0  0  0
 24 25  1  0  0  0  0
 24 26  1  0  0  0  0
 24 50  1  6  0  0  0
 25 51  1  0  0  0  0
 26 27  1  0  0  0  0
 26 28  1  0  0  0  0
 26 52  1  6  0  0  0
 27 53  1  0  0  0  0
 28 29  1  0  0  0  0
 28 54  1  1  0  0  0
 29 55  1  0  0  0  0
 30 31  1  0  0  0  0
 30 32  1  0  0  0  0
 30 56  1  6  0  0  0
 31 57  1  0  0  0  0
 32 33  1  0  0  0  0
 32 58  1  6  0  0  0
 33 59  1  0  0  0  0
 34 35  2  0  0  0  0
 34 36  1  0  0  0  0
 36 60  1  0  0  0  0
M  END
$$$$
