CHEBI:4786
 OpenBabel04242411003D

 49 50  0  0  1  0  0  0  0  0999 V2000
    2.5676   -1.7075    1.2948 C   0  0  0  0  0  0  0  0  0  0  0  0
    3.1528   -0.3005    1.4263 C   0  0  2  0  0  0  0  0  0  0  0  0
    2.3767    0.7732    0.7291 N   0  0  0  0  0  0  0  0  0  0  0  0
    2.0652    0.5102   -0.7104 C   0  0  1  0  0  0  0  0  0  0  0  0
    0.7666    1.2262   -1.1482 C   0  0  0  0  0  0  0  0  0  0  0  0
    0.8140    2.7603   -1.2733 C   0  0  0  0  0  0  0  0  0  0  0  0
    0.9260    3.5244    0.0226 C   0  0  0  0  0  0  0  0  0  0  0  0
    2.0483    4.3243    0.2835 C   0  0  0  0  0  0  0  0  0  0  0  0
    2.1371    5.0603    1.4665 C   0  0  0  0  0  0  0  0  0  0  0  0
    1.0993    5.0160    2.3946 C   0  0  0  0  0  0  0  0  0  0  0  0
   -0.0267    4.2352    2.1411 C   0  0  0  0  0  0  0  0  0  0  0  0
   -0.1136    3.4929    0.9619 C   0  0  0  0  0  0  0  0  0  0  0  0
    3.2163    0.9828   -1.6111 C   0  0  0  0  0  0  0  0  0  0  0  0
    3.3782    0.6501   -2.7728 O   0  0  0  0  0  0  0  0  0  0  0  0
    3.9858    1.9145   -0.9893 O   0  0  0  0  0  0  0  0  0  0  0  0
    4.6345   -0.2598    0.9922 C   0  0  0  0  0  0  0  0  0  0  0  0
    5.1144   -1.0739    0.1991 O   0  0  0  0  0  0  0  0  0  0  0  0
    5.4126    0.7704    1.4723 N   0  0  0  0  0  0  0  0  0  0  0  0
    5.0392    1.7407    2.4945 C   0  0  0  0  0  0  0  0  0  0  0  0
    6.2915    2.5739    2.7121 C   0  0  0  0  0  0  0  0  0  0  0  0
    6.9551    2.5514    1.3403 C   0  0  0  0  0  0  0  0  0  0  0  0
    6.7026    1.1205    0.8538 C   0  0  1  0  0  0  0  0  0  0  0  0
    7.8405    0.1585    1.2418 C   0  0  0  0  0  0  0  0  0  0  0  0
    8.9138    0.5072    1.7156 O   0  0  0  0  0  0  0  0  0  0  0  0
    7.5920   -1.1375    0.9337 O   0  0  0  0  0  0  0  0  0  0  0  0
    2.7330   -2.1458    0.3054 H   0  0  0  0  0  0  0  0  0  0  0  0
    1.4930   -1.7114    1.5041 H   0  0  0  0  0  0  0  0  0  0  0  0
    3.0480   -2.3789    2.0163 H   0  0  0  0  0  0  0  0  0  0  0  0
    3.1194   -0.0600    2.4949 H   0  0  0  0  0  0  0  0  0  0  0  0
    1.4838    0.8574    1.2249 H   0  0  0  0  0  0  0  0  0  0  0  0
    1.9212   -0.5591   -0.8843 H   0  0  0  0  0  0  0  0  0  0  0  0
   -0.0544    0.9277   -0.4835 H   0  0  0  0  0  0  0  0  0  0  0  0
    0.4990    0.8376   -2.1406 H   0  0  0  0  0  0  0  0  0  0  0  0
   -0.1102    3.0929   -1.7650 H   0  0  0  0  0  0  0  0  0  0  0  0
    1.6169    3.0581   -1.9580 H   0  0  0  0  0  0  0  0  0  0  0  0
    2.8560    4.3973   -0.4430 H   0  0  0  0  0  0  0  0  0  0  0  0
    3.0067    5.6855    1.6535 H   0  0  0  0  0  0  0  0  0  0  0  0
    1.1585    5.6058    3.3059 H   0  0  0  0  0  0  0  0  0  0  0  0
   -0.8472    4.2200    2.8542 H   0  0  0  0  0  0  0  0  0  0  0  0
   -1.0122    2.9110    0.7690 H   0  0  0  0  0  0  0  0  0  0  0  0
    3.6244    1.9908   -0.0731 H   0  0  0  0  0  0  0  0  0  0  0  0
    4.7123    1.2338    3.4065 H   0  0  0  0  0  0  0  0  0  0  0  0
    4.2207    2.3579    2.1125 H   0  0  0  0  0  0  0  0  0  0  0  0
    6.9427    2.0920    3.4510 H   0  0  0  0  0  0  0  0  0  0  0  0
    6.0662    3.5851    3.0619 H   0  0  0  0  0  0  0  0  0  0  0  0
    8.0096    2.8370    1.3824 H   0  0  0  0  0  0  0  0  0  0  0  0
    6.4398    3.2612    0.6805 H   0  0  0  0  0  0  0  0  0  0  0  0
    6.6173    1.0964   -0.2389 H   0  0  0  0  0  0  0  0  0  0  0  0
    6.7162   -1.2604    0.4886 H   0  0  0  0  0  0  0  0  0  0  0  0
  1 26  1  0  0  0  0
  1 27  1  0  0  0  0
  1 28  1  0  0  0  0
  2 16  1  0  0  0  0
  2  3  1  0  0  0  0
  2  1  1  0  0  0  0
  2 29  1  1  0  0  0
  3  4  1  0  0  0  0
  3 30  1  0  0  0  0
  4  5  1  0  0  0  0
  4 13  1  0  0  0  0
  4 31  1  6  0  0  0
  5  6  1  0  0  0  0
  5 32  1  0  0  0  0
  5 33  1  0  0  0  0
  6  7  1  0  0  0  0
  6 34  1  0  0  0  0
  6 35  1  0  0  0  0
  7  8  1  0  0  0  0
  7 12  2  0  0  0  0
  8  9  2  0  0  0  0
  8 36  1  0  0  0  0
  9 10  1  0  0  0  0
  9 37  1  0  0  0  0
 10 11  2  0  0  0  0
 10 38  1  0  0  0  0
 11 12  1  0  0  0  0
 11 39  1  0  0  0  0
 12 40  1  0  0  0  0
 13 14  2  0  0  0  0
 13 15  1  0  0  0  0
 15 41  1  0  0  0  0
 16 17  2  0  0  0  0
 16 18  1  0  0  0  0
 18 19  1  0  0  0  0
 18 22  1  0  0  0  0
 19 20  1  0  0  0  0
 19 42  1  0  0  0  0
 19 43  1  0  0  0  0
 20 21  1  0  0  0  0
 20 44  1  0  0  0  0
 20 45  1  0  0  0  0
 21 22  1  0  0  0  0
 21 46  1  0  0  0  0
 21 47  1  0  0  0  0
 22 23  1  0  0  0  0
 22 48  1  6  0  0  0
 23 24  2  0  0  0  0
 23 25  1  0  0  0  0
 25 49  1  0  0  0  0
M  END
$$$$
