CHEBI:15490
 OpenBabel04242412113D

100102  0  0  1  0  0  0  0  0999 V2000
   25.0199   -6.0953   -8.8519 C   0  0  0  0  0  0  0  0  0  0  0  0
   24.9916   -5.1352   -7.6448 C   0  0  0  0  0  0  0  0  0  0  0  0
   24.8673   -3.6867   -8.1824 C   0  0  0  0  0  0  0  0  0  0  0  0
   23.7344   -5.3985   -6.7820 C   0  0  0  0  0  0  0  0  0  0  0  0
   23.5594   -6.7818   -6.5897 O   0  0  0  0  0  0  0  0  0  0  0  0
   22.1226   -7.3772   -6.2308 P   0  0  0  0  0  0  0  0  0  0  0  0
   21.5462   -7.0152   -4.9030 O   0  0  0  0  0  0  0  0  0  0  0  0
   21.2360   -6.9120   -7.4805 O   0  0  0  0  0  0  0  0  0  0  0  0
   22.3119   -8.9295   -6.4660 O   0  0  0  0  0  0  0  0  0  0  0  0
   21.1718   -9.9654   -6.7873 P   0  0  0  0  0  0  0  0  0  0  0  0
   20.1733   -9.5258   -7.8069 O   0  0  0  0  0  0  0  0  0  0  0  0
   22.0250  -11.2258   -7.2625 O   0  0  0  0  0  0  0  0  0  0  0  0
   20.5790  -10.4777   -5.3767 O   0  0  0  0  0  0  0  0  0  0  0  0
   19.2173  -10.8999   -5.3479 C   0  0  0  0  0  0  0  0  0  0  0  0
   19.0035  -12.3606   -5.7681 C   0  0  1  0  0  0  0  0  0  0  0  0
   19.3034  -12.5099   -7.1588 O   0  0  0  0  0  0  0  0  0  0  0  0
   19.9969  -13.7588   -7.3529 C   0  0  1  0  0  0  0  0  0  0  0  0
   20.7335  -13.6907   -8.5984 N   0  0  0  0  0  0  0  0  0  0  0  0
   20.7472  -12.6201   -9.4642 C   0  0  0  0  0  0  0  0  0  0  0  0
   21.3697  -12.8817  -10.5911 N   0  0  0  0  0  0  0  0  0  0  0  0
   21.7284  -14.2003  -10.4779 C   0  0  0  0  0  0  0  0  0  0  0  0
   22.3655  -15.0601  -11.3848 C   0  0  0  0  0  0  0  0  0  0  0  0
   22.7557  -14.6462  -12.6538 N   0  0  0  0  0  0  0  0  0  0  0  0
   22.5952  -16.3353  -11.0062 N   0  0  0  0  0  0  0  0  0  0  0  0
   22.1668  -16.7199   -9.7811 C   0  0  0  0  0  0  0  0  0  0  0  0
   21.5345  -15.9919   -8.8276 N   0  0  0  0  0  0  0  0  0  0  0  0
   21.3534  -14.7271   -9.2480 C   0  0  0  0  0  0  0  0  0  0  0  0
   20.7566  -14.0202   -6.0377 C   0  0  2  0  0  0  0  0  0  0  0  0
   22.0355  -13.3662   -5.9424 O   0  0  0  0  0  0  0  0  0  0  0  0
   19.8348  -13.3850   -4.9875 C   0  0  2  0  0  0  0  0  0  0  0  0
   19.0092  -14.3929   -4.4028 O   0  0  0  0  0  0  0  0  0  0  0  0
   18.0790  -14.0192   -3.1494 P   0  0  0  0  0  0  0  0  0  0  0  0
   17.7518  -15.1216   -2.2074 O   0  0  0  0  0  0  0  0  0  0  0  0
   18.7401  -12.7517   -2.4433 O   0  0  0  0  0  0  0  0  0  0  0  0
   16.7690  -13.3779   -3.7935 O   0  0  0  0  0  0  0  0  0  0  0  0
   26.3456   -5.2515   -6.8944 C   0  0  1  0  0  0  0  0  0  0  0  0
   26.5248   -4.1476   -5.9930 O   0  0  0  0  0  0  0  0  0  0  0  0
   26.7358   -6.5417   -6.1222 C   0  0  0  0  0  0  0  0  0  0  0  0
   26.0113   -7.4893   -5.8601 O   0  0  0  0  0  0  0  0  0  0  0  0
   28.0563   -6.4823   -5.6996 N   0  0  0  0  0  0  0  0  0  0  0  0
   28.6545   -7.4792   -4.8348 C   0  0  0  0  0  0  0  0  0  0  0  0
   30.0536   -7.0799   -4.4036 C   0  0  0  0  0  0  0  0  0  0  0  0
   30.2451   -6.3651   -3.0785 C   0  0  0  0  0  0  0  0  0  0  0  0
   31.2191   -6.6506   -2.3719 O   0  0  0  0  0  0  0  0  0  0  0  0
   29.4777   -5.3388   -2.6405 N   0  0  0  0  0  0  0  0  0  0  0  0
   28.2387   -4.7588   -3.1439 C   0  0  0  0  0  0  0  0  0  0  0  0
   27.6802   -3.7283   -2.1523 C   0  0  0  0  0  0  0  0  0  0  0  0
   26.0673   -2.9890   -2.5513 S   0  0  0  0  0  0  0  0  0  0  0  0
   25.1145   -4.4453   -2.7857 C   0  0  0  0  0  0  0  0  0  0  0  0
   25.1942   -5.0363   -3.8533 O   0  0  0  0  0  0  0  0  0  0  0  0
   24.3247   -4.9383   -1.6120 C   0  0  0  0  0  0  0  0  0  0  0  0
   22.9652   -5.4502   -2.0185 C   0  0  0  0  0  0  0  0  0  0  0  0
   22.2263   -4.7492   -2.7114 O   0  0  0  0  0  0  0  0  0  0  0  0
   22.4764   -6.7569   -1.4151 C   0  0  0  0  0  0  0  0  0  0  0  0
   23.2981   -7.9764   -1.8235 C   0  0  0  0  0  0  0  0  0  0  0  0
   22.6273   -8.8875   -2.8186 C   0  0  0  0  0  0  0  0  0  0  0  0
   23.1951   -9.5020   -3.7069 O   0  0  0  0  0  0  0  0  0  0  0  0
   21.3218   -9.1036   -2.5805 O   0  0  0  0  0  0  0  0  0  0  0  0
   25.8309   -5.8347   -9.5417 H   0  0  0  0  0  0  0  0  0  0  0  0
   24.0806   -6.0488   -9.4138 H   0  0  0  0  0  0  0  0  0  0  0  0
   25.1750   -7.1343   -8.5430 H   0  0  0  0  0  0  0  0  0  0  0  0
   24.0174   -3.5882   -8.8667 H   0  0  0  0  0  0  0  0  0  0  0  0
   25.7686   -3.3871   -8.7291 H   0  0  0  0  0  0  0  0  0  0  0  0
   24.7157   -2.9691   -7.3674 H   0  0  0  0  0  0  0  0  0  0  0  0
   22.8519   -5.0032   -7.2990 H   0  0  0  0  0  0  0  0  0  0  0  0
   23.7806   -4.8932   -5.8158 H   0  0  0  0  0  0  0  0  0  0  0  0
   21.4573   -7.3731   -8.3111 H   0  0  0  0  0  0  0  0  0  0  0  0
   22.4030  -11.7630   -6.5332 H   0  0  0  0  0  0  0  0  0  0  0  0
   18.6200  -10.2349   -5.9804 H   0  0  0  0  0  0  0  0  0  0  0  0
   18.8653  -10.7621   -4.3211 H   0  0  0  0  0  0  0  0  0  0  0  0
   17.9356  -12.5740   -5.6851 H   0  0  0  0  0  0  0  0  0  0  0  0
   19.2239  -14.5269   -7.4884 H   0  0  0  0  0  0  0  0  0  0  0  0
   20.2824  -11.6728   -9.2240 H   0  0  0  0  0  0  0  0  0  0  0  0
   22.8231  -13.6357  -12.7330 H   0  0  0  0  0  0  0  0  0  0  0  0
   23.5060  -15.2019  -13.0377 H   0  0  0  0  0  0  0  0  0  0  0  0
   22.3545  -17.7617   -9.5352 H   0  0  0  0  0  0  0  0  0  0  0  0
   20.9193  -15.0937   -5.8898 H   0  0  0  0  0  0  0  0  0  0  0  0
   22.5419  -13.8502   -5.2597 H   0  0  0  0  0  0  0  0  0  0  0  0
   20.4226  -12.9222   -4.1878 H   0  0  0  0  0  0  0  0  0  0  0  0
   18.3363  -12.5876   -1.5698 H   0  0  0  0  0  0  0  0  0  0  0  0
   16.0359  -14.0235   -3.8059 H   0  0  0  0  0  0  0  0  0  0  0  0
   27.1361   -5.1277   -7.6484 H   0  0  0  0  0  0  0  0  0  0  0  0
   25.9119   -4.3292   -5.2470 H   0  0  0  0  0  0  0  0  0  0  0  0
   28.6116   -5.7026   -6.0339 H   0  0  0  0  0  0  0  0  0  0  0  0
   28.6989   -8.4039   -5.4228 H   0  0  0  0  0  0  0  0  0  0  0  0
   27.9926   -7.6722   -3.9840 H   0  0  0  0  0  0  0  0  0  0  0  0
   30.5662   -6.4984   -5.1782 H   0  0  0  0  0  0  0  0  0  0  0  0
   30.6186   -8.0171   -4.2939 H   0  0  0  0  0  0  0  0  0  0  0  0
   29.8578   -4.9558   -1.7813 H   0  0  0  0  0  0  0  0  0  0  0  0
   27.5372   -5.5831   -3.2648 H   0  0  0  0  0  0  0  0  0  0  0  0
   28.4515   -4.3012   -4.1136 H   0  0  0  0  0  0  0  0  0  0  0  0
   28.3950   -2.9026   -2.0598 H   0  0  0  0  0  0  0  0  0  0  0  0
   27.5967   -4.1809   -1.1584 H   0  0  0  0  0  0  0  0  0  0  0  0
   24.1636   -4.1451   -0.8750 H   0  0  0  0  0  0  0  0  0  0  0  0
   24.9060   -5.7292   -1.1293 H   0  0  0  0  0  0  0  0  0  0  0  0
   21.4141   -6.8633   -1.6569 H   0  0  0  0  0  0  0  0  0  0  0  0
   22.5362   -6.6266   -0.3271 H   0  0  0  0  0  0  0  0  0  0  0  0
   23.4942   -8.5933   -0.9378 H   0  0  0  0  0  0  0  0  0  0  0  0
   24.2665   -7.6869   -2.2445 H   0  0  0  0  0  0  0  0  0  0  0  0
   21.0326   -9.6153   -3.3683 H   0  0  0  0  0  0  0  0  0  0  0  0
  1  2  1  0  0  0  0
  1 59  1  0  0  0  0
  1 60  1  0  0  0  0
  1 61  1  0  0  0  0
  2  3  1  0  0  0  0
  2  4  1  0  0  0  0
  2 36  1  0  0  0  0
  3 62  1  0  0  0  0
  3 63  1  0  0  0  0
  3 64  1  0  0  0  0
  4  5  1  0  0  0  0
  4 65  1  0  0  0  0
  4 66  1  0  0  0  0
  5  6  1  0  0  0  0
  6  7  2  0  0  0  0
  6  8  1  0  0  0  0
  6  9  1  0  0  0  0
  8 67  1  0  0  0  0
  9 10  1  0  0  0  0
 10 11  2  0  0  0  0
 10 12  1  0  0  0  0
 10 13  1  0  0  0  0
 12 68  1  0  0  0  0
 13 14  1  0  0  0  0
 14 69  1  0  0  0  0
 14 70  1  0  0  0  0
 15 16  1  0  0  0  0
 15 30  1  0  0  0  0
 15 14  1  0  0  0  0
 15 71  1  1  0  0  0
 16 17  1  0  0  0  0
 17 28  1  0  0  0  0
 17 18  1  0  0  0  0
 17 72  1  6  0  0  0
 18 19  1  0  0  0  0
 18 27  1  0  0  0  0
 19 20  2  0  0  0  0
 19 73  1  0  0  0  0
 20 21  1  0  0  0  0
 21 22  1  0  0  0  0
 21 27  2  0  0  0  0
 22 23  1  0  0  0  0
 22 24  2  0  0  0  0
 23 74  1  0  0  0  0
 23 75  1  0  0  0  0
 24 25  1  0  0  0  0
 25 26  2  0  0  0  0
 25 76  1  0  0  0  0
 26 27  1  0  0  0  0
 28 29  1  0  0  0  0
 28 30  1  0  0  0  0
 28 77  1  6  0  0  0
 29 78  1  0  0  0  0
 30 31  1  0  0  0  0
 30 79  1  1  0  0  0
 31 32  1  0  0  0  0
 32 33  2  0  0  0  0
 32 34  1  0  0  0  0
 32 35  1  0  0  0  0
 34 80  1  0  0  0  0
 35 81  1  0  0  0  0
 36 37  1  0  0  0  0
 36 38  1  0  0  0  0
 36 82  1  6  0  0  0
 37 83  1  0  0  0  0
 38 39  2  0  0  0  0
 38 40  1  0  0  0  0
 40 41  1  0  0  0  0
 40 84  1  0  0  0  0
 41 42  1  0  0  0  0
 41 85  1  0  0  0  0
 41 86  1  0  0  0  0
 42 43  1  0  0  0  0
 42 87  1  0  0  0  0
 42 88  1  0  0  0  0
 43 44  2  0  0  0  0
 43 45  1  0  0  0  0
 45 46  1  0  0  0  0
 45 89  1  0  0  0  0
 46 47  1  0  0  0  0
 46 90  1  0  0  0  0
 46 91  1  0  0  0  0
 47 48  1  0  0  0  0
 47 92  1  0  0  0  0
 47 93  1  0  0  0  0
 48 49  1  0  0  0  0
 49 50  2  0  0  0  0
 49 51  1  0  0  0  0
 51 52  1  0  0  0  0
 51 94  1  0  0  0  0
 51 95  1  0  0  0  0
 52 53  2  0  0  0  0
 52 54  1  0  0  0  0
 54 55  1  0  0  0  0
 54 96  1  0  0  0  0
 54 97  1  0  0  0  0
 55 56  1  0  0  0  0
 55 98  1  0  0  0  0
 55 99  1  0  0  0  0
 56 57  2  0  0  0  0
 56 58  1  0  0  0  0
 58100  1  0  0  0  0
M  END
$$$$
