CHEBI:27385
 OpenBabel04252409443D

  5  4  0  0  0  0  0  0  0  0999 V2000
    0.9363    0.0428   -0.0658 Cl  0  0  0  0  0  0  0  0  0  0  0  0
    2.7180    0.0428   -0.0658 C   0  0  0  0  0  0  0  0  0  0  0  0
    3.3120    1.3162    1.0299 Cl  0  0  0  0  0  0  0  0  0  0  0  0
    3.3120   -1.5427    0.4891 Cl  0  0  0  0  0  0  0  0  0  0  0  0
    3.3120    0.3550   -1.7163 Cl  0  0  0  0  0  0  0  0  0  0  0  0
  1  2  1  0  0  0  0
  2  3  1  0  0  0  0
  2  4  1  0  0  0  0
  2  5  1  0  0  0  0
M  END
$$$$
