CHEBI:16607
 OpenBabel04242414543D

 11 11  0  0  0  0  0  0  0  0999 V2000
    1.1880   -0.0036   -0.0764 N   0  0  0  0  0  0  0  0  0  0  0  0
    2.5135    0.0272   -0.0633 C   0  0  0  0  0  0  0  0  0  0  0  0
    3.3092    1.1393   -0.0582 C   0  0  0  0  0  0  0  0  0  0  0  0
    4.5833    0.6406   -0.0491 N   0  0  0  0  0  0  0  0  0  0  0  0
    4.4888   -0.7239   -0.0474 C   0  0  0  0  0  0  0  0  0  0  0  0
    3.2357   -1.1200   -0.0548 N   0  0  0  0  0  0  0  0  0  0  0  0
    0.6026    0.8193   -0.0531 H   0  0  0  0  0  0  0  0  0  0  0  0
    0.7112   -0.8969   -0.0544 H   0  0  0  0  0  0  0  0  0  0  0  0
    3.0990    2.1979   -0.0623 H   0  0  0  0  0  0  0  0  0  0  0  0
    5.4402    1.1757   -0.0454 H   0  0  0  0  0  0  0  0  0  0  0  0
    5.3578   -1.3679   -0.0411 H   0  0  0  0  0  0  0  0  0  0  0  0
  1  2  1  0  0  0  0
  1  7  1  0  0  0  0
  1  8  1  0  0  0  0
  2  3  2  0  0  0  0
  2  6  1  0  0  0  0
  3  4  1  0  0  0  0
  3  9  1  0  0  0  0
  4  5  1  0  0  0  0
  4 10  1  0  0  0  0
  5  6  2  0  0  0  0
  5 11  1  0  0  0  0
M  END
$$$$
