CHEBI:17195
 OpenBabel04242415593D

 18 18  0  0  0  0  0  0  0  0999 V2000
    0.4845    0.7386   -0.7681 O   0  0  0  0  0  0  0  0  0  0  0  0
    1.6091    0.6797   -0.2982 C   0  0  0  0  0  0  0  0  0  0  0  0
    1.8779    0.1070    0.9070 O   0  0  0  0  0  0  0  0  0  0  0  0
    2.8699    1.3167   -0.9044 C   0  0  0  0  0  0  0  0  0  0  0  0
    2.8273    1.3915   -2.4366 C   0  0  0  0  0  0  0  0  0  0  0  0
    3.1855   -0.1751   -3.2958 S   0  0  0  0  0  0  0  0  0  0  0  0
    4.6679   -0.6497   -2.3654 C   0  0  0  0  0  0  0  0  0  0  0  0
    4.4033   -0.6277   -0.8590 C   0  0  0  0  0  0  0  0  0  0  0  0
    4.0999    0.7071   -0.2956 N   0  0  0  0  0  0  0  0  0  0  0  0
    2.8517    0.1929    1.0491 H   0  0  0  0  0  0  0  0  0  0  0  0
    2.8405    2.3499   -0.5321 H   0  0  0  0  0  0  0  0  0  0  0  0
    3.5686    2.1209   -2.7834 H   0  0  0  0  0  0  0  0  0  0  0  0
    1.8495    1.7428   -2.7826 H   0  0  0  0  0  0  0  0  0  0  0  0
    5.4896    0.0250   -2.6284 H   0  0  0  0  0  0  0  0  0  0  0  0
    4.9586   -1.6585   -2.6755 H   0  0  0  0  0  0  0  0  0  0  0  0
    5.3034   -0.9916   -0.3494 H   0  0  0  0  0  0  0  0  0  0  0  0
    3.6100   -1.3396   -0.5997 H   0  0  0  0  0  0  0  0  0  0  0  0
    4.8856    1.3213   -0.5306 H   0  0  0  0  0  0  0  0  0  0  0  0
  1  2  2  0  0  0  0
  2  3  1  0  0  0  0
  2  4  1  0  0  0  0
  3 10  1  0  0  0  0
  4  5  1  0  0  0  0
  4  9  1  0  0  0  0
  4 11  1  0  0  0  0
  5  6  1  0  0  0  0
  5 12  1  0  0  0  0
  5 13  1  0  0  0  0
  6  7  1  0  0  0  0
  7  8  1  0  0  0  0
  7 14  1  0  0  0  0
  7 15  1  0  0  0  0
  8  9  1  0  0  0  0
  8 16  1  0  0  0  0
  8 17  1  0  0  0  0
  9 18  1  0  0  0  0
M  END
$$$$
