CHEBI:16817
 OpenBabel04242415183D

 22 22  0  0  1  0  0  0  0  0999 V2000
    3.2198   -0.4033    1.7453 O   0  0  0  0  0  0  0  0  0  0  0  0
    3.7653    0.5917    1.2900 C   0  0  0  0  0  0  0  0  0  0  0  0
    5.0826    0.8263    1.4645 O   0  0  0  0  0  0  0  0  0  0  0  0
    3.0242    1.6569    0.5042 C   0  0  1  0  0  0  0  0  0  0  0  0
    2.9956    2.9910    1.2569 C   0  0  0  0  0  0  0  0  0  0  0  0
    2.2307    4.0530    0.4710 C   0  0  0  0  0  0  0  0  0  0  0  0
    2.7815    4.2117   -0.9460 C   0  0  2  0  0  0  0  0  0  0  0  0
    1.9903    5.1479   -1.6655 O   0  0  0  0  0  0  0  0  0  0  0  0
    2.8100    2.8791   -1.6945 C   0  0  0  0  0  0  0  0  0  0  0  0
    3.5772    1.8127   -0.9166 C   0  0  0  0  0  0  0  0  0  0  0  0
    5.4119    1.6541    1.0704 H   0  0  0  0  0  0  0  0  0  0  0  0
    1.9877    1.3002    0.4175 H   0  0  0  0  0  0  0  0  0  0  0  0
    4.0157    3.3484    1.4437 H   0  0  0  0  0  0  0  0  0  0  0  0
    2.5311    2.8561    2.2412 H   0  0  0  0  0  0  0  0  0  0  0  0
    2.2755    5.0149    0.9957 H   0  0  0  0  0  0  0  0  0  0  0  0
    1.1661    3.7885    0.4282 H   0  0  0  0  0  0  0  0  0  0  0  0
    3.7977    4.6197   -0.8952 H   0  0  0  0  0  0  0  0  0  0  0  0
    1.0818    4.8041   -1.7191 H   0  0  0  0  0  0  0  0  0  0  0  0
    3.2607    3.0202   -2.6843 H   0  0  0  0  0  0  0  0  0  0  0  0
    1.7842    2.5363   -1.8825 H   0  0  0  0  0  0  0  0  0  0  0  0
    4.6387    2.0870   -0.8911 H   0  0  0  0  0  0  0  0  0  0  0  0
    3.5193    0.8552   -1.4481 H   0  0  0  0  0  0  0  0  0  0  0  0
  1  2  2  0  0  0  0
  2  3  1  0  0  0  0
  3 11  1  0  0  0  0
  4  5  1  0  0  0  0
  4 10  1  0  0  0  0
  4  2  1  0  0  0  0
  4 12  1  6  0  0  0
  5  6  1  0  0  0  0
  5 13  1  0  0  0  0
  5 14  1  0  0  0  0
  6  7  1  0  0  0  0
  6 15  1  0  0  0  0
  6 16  1  0  0  0  0
  7  8  1  0  0  0  0
  7  9  1  0  0  0  0
  7 17  1  1  0  0  0
  8 18  1  0  0  0  0
  9 10  1  0  0  0  0
  9 19  1  0  0  0  0
  9 20  1  0  0  0  0
 10 21  1  0  0  0  0
 10 22  1  0  0  0  0
M  END
$$$$
