CHEBI:17648
 OpenBabel04242417013D

 57 60  0  0  1  0  0  0  0  0999 V2000
   11.9202   -7.3653   -0.9850 N   0  0  0  0  0  0  0  0  0  0  0  0
   10.7177   -6.7381   -1.2881 C   0  0  0  0  0  0  0  0  0  0  0  0
   10.1214   -5.9988   -0.3262 N   0  0  0  0  0  0  0  0  0  0  0  0
    8.9492   -5.3959   -0.6188 C   0  0  0  0  0  0  0  0  0  0  0  0
    8.2426   -5.4470   -1.7663 N   0  0  0  0  0  0  0  0  0  0  0  0
    8.8809   -6.1811   -2.6937 C   0  0  0  0  0  0  0  0  0  0  0  0
   10.0837   -6.8544   -2.5368 C   0  0  0  0  0  0  0  0  0  0  0  0
   10.4147   -7.5499   -3.6815 N   0  0  0  0  0  0  0  0  0  0  0  0
    9.4433   -7.2801   -4.5268 C   0  0  0  0  0  0  0  0  0  0  0  0
    8.5062   -6.4346   -3.9853 N   0  0  0  0  0  0  0  0  0  0  0  0
    7.3293   -5.9656   -4.6922 C   0  0  2  0  0  0  0  0  0  0  0  0
    6.9818   -4.6289   -4.2721 O   0  0  0  0  0  0  0  0  0  0  0  0
    5.5536   -4.5746   -4.0720 C   0  0  2  0  0  0  0  0  0  0  0  0
    5.2343   -4.4508   -2.5795 C   0  0  0  0  0  0  0  0  0  0  0  0
    3.8396   -4.2408   -2.4236 O   0  0  0  0  0  0  0  0  0  0  0  0
    3.2422   -4.2501   -0.9318 P   0  0  0  0  0  0  0  0  0  0  0  0
    4.1504   -3.6268    0.0732 O   0  0  0  0  0  0  0  0  0  0  0  0
    1.9324   -3.3610   -1.1546 O   0  0  0  0  0  0  0  0  0  0  0  0
    2.7139   -5.7660   -0.6394 N   0  0  0  0  0  0  0  0  0  0  0  0
    1.6136   -5.9020    0.3524 C   0  0  1  0  0  0  0  0  0  0  0  0
    1.2539   -7.3855    0.5440 C   0  0  0  0  0  0  0  0  0  0  0  0
    0.0893   -7.6153    1.4806 C   0  0  0  0  0  0  0  0  0  0  0  0
   -1.2292   -7.5643    1.0091 C   0  0  0  0  0  0  0  0  0  0  0  0
   -2.3003   -7.7709    1.8813 C   0  0  0  0  0  0  0  0  0  0  0  0
   -2.0652   -8.0220    3.2318 C   0  0  0  0  0  0  0  0  0  0  0  0
   -0.7586   -8.0698    3.7121 C   0  0  0  0  0  0  0  0  0  0  0  0
    0.3136   -7.8703    2.8414 C   0  0  0  0  0  0  0  0  0  0  0  0
    2.0510   -5.2703    1.6750 C   0  0  0  0  0  0  0  0  0  0  0  0
    1.5042   -4.3510    2.2598 O   0  0  0  0  0  0  0  0  0  0  0  0
    3.2127   -5.7868    2.1379 O   0  0  0  0  0  0  0  0  0  0  0  0
    4.9786   -5.8517   -4.6851 C   0  0  1  0  0  0  0  0  0  0  0  0
    4.8033   -5.7088   -6.1082 O   0  0  0  0  0  0  0  0  0  0  0  0
    6.1035   -6.8495   -4.4688 C   0  0  1  0  0  0  0  0  0  0  0  0
    6.0224   -7.9328   -5.3937 O   0  0  0  0  0  0  0  0  0  0  0  0
   12.0414   -7.4935    0.0105 H   0  0  0  0  0  0  0  0  0  0  0  0
   12.1233   -8.1522   -1.5915 H   0  0  0  0  0  0  0  0  0  0  0  0
    8.5194   -4.7931    0.1766 H   0  0  0  0  0  0  0  0  0  0  0  0
    9.3639   -7.6675   -5.5356 H   0  0  0  0  0  0  0  0  0  0  0  0
    7.5977   -5.9127   -5.7550 H   0  0  0  0  0  0  0  0  0  0  0  0
    5.1781   -3.6913   -4.6012 H   0  0  0  0  0  0  0  0  0  0  0  0
    5.7787   -3.6016   -2.1521 H   0  0  0  0  0  0  0  0  0  0  0  0
    5.5347   -5.3482   -2.0292 H   0  0  0  0  0  0  0  0  0  0  0  0
    2.1587   -2.4138   -1.1906 H   0  0  0  0  0  0  0  0  0  0  0  0
    3.4883   -6.3230   -0.2866 H   0  0  0  0  0  0  0  0  0  0  0  0
    0.7343   -5.3562   -0.0091 H   0  0  0  0  0  0  0  0  0  0  0  0
    2.1202   -7.9517    0.9120 H   0  0  0  0  0  0  0  0  0  0  0  0
    1.0058   -7.8322   -0.4287 H   0  0  0  0  0  0  0  0  0  0  0  0
   -1.4337   -7.3685   -0.0412 H   0  0  0  0  0  0  0  0  0  0  0  0
   -3.3205   -7.7351    1.5076 H   0  0  0  0  0  0  0  0  0  0  0  0
   -2.8997   -8.1794    3.9102 H   0  0  0  0  0  0  0  0  0  0  0  0
   -0.5742   -8.2619    4.7659 H   0  0  0  0  0  0  0  0  0  0  0  0
    1.3265   -7.9145    3.2360 H   0  0  0  0  0  0  0  0  0  0  0  0
    3.4270   -5.2072    2.9011 H   0  0  0  0  0  0  0  0  0  0  0  0
    4.0225   -6.1797   -4.2683 H   0  0  0  0  0  0  0  0  0  0  0  0
    4.1149   -5.0305   -6.2456 H   0  0  0  0  0  0  0  0  0  0  0  0
    6.0772   -7.2540   -3.4508 H   0  0  0  0  0  0  0  0  0  0  0  0
    5.5907   -7.5615   -6.1934 H   0  0  0  0  0  0  0  0  0  0  0  0
  1  2  1  0  0  0  0
  1 35  1  0  0  0  0
  1 36  1  0  0  0  0
  2  3  1  0  0  0  0
  2  7  2  0  0  0  0
  3  4  2  0  0  0  0
  4  5  1  0  0  0  0
  4 37  1  0  0  0  0
  5  6  2  0  0  0  0
  6  7  1  0  0  0  0
  6 10  1  0  0  0  0
  7  8  1  0  0  0  0
  8  9  2  0  0  0  0
  9 10  1  0  0  0  0
  9 38  1  0  0  0  0
 10 11  1  0  0  0  0
 11 12  1  0  0  0  0
 11 33  1  0  0  0  0
 11 39  1  6  0  0  0
 12 13  1  0  0  0  0
 13 14  1  0  0  0  0
 13 31  1  0  0  0  0
 13 40  1  6  0  0  0
 14 15  1  0  0  0  0
 14 41  1  0  0  0  0
 14 42  1  0  0  0  0
 15 16  1  0  0  0  0
 16 17  2  0  0  0  0
 16 18  1  0  0  0  0
 16 19  1  0  0  0  0
 18 43  1  0  0  0  0
 19 20  1  0  0  0  0
 19 44  1  0  0  0  0
 20 21  1  0  0  0  0
 20 28  1  0  0  0  0
 20 45  1  6  0  0  0
 21 22  1  0  0  0  0
 21 46  1  0  0  0  0
 21 47  1  0  0  0  0
 22 23  1  0  0  0  0
 22 27  2  0  0  0  0
 23 24  2  0  0  0  0
 23 48  1  0  0  0  0
 24 25  1  0  0  0  0
 24 49  1  0  0  0  0
 25 26  2  0  0  0  0
 25 50  1  0  0  0  0
 26 27  1  0  0  0  0
 26 51  1  0  0  0  0
 27 52  1  0  0  0  0
 28 29  2  0  0  0  0
 28 30  1  0  0  0  0
 30 53  1  0  0  0  0
 31 32  1  0  0  0  0
 31 33  1  0  0  0  0
 31 54  1  1  0  0  0
 32 55  1  0  0  0  0
 33 34  1  0  0  0  0
 33 56  1  1  0  0  0
 34 57  1  0  0  0  0
M  END
$$$$
