CHEBI:15682
 OpenBabel04242413033D

 38 37  0  0  1  0  0  0  0  0999 V2000
    7.5888    4.0003    1.1590 N   0  0  0  0  0  0  0  0  0  0  0  0
    7.4315    4.6543    2.2499 C   0  0  0  0  0  0  0  0  0  0  0  0
    6.7018    4.3132    3.3299 N   0  0  0  0  0  0  0  0  0  0  0  0
    5.8454    3.1536    3.4738 C   0  0  0  0  0  0  0  0  0  0  0  0
    6.5496    2.0540    4.2733 C   0  0  0  0  0  0  0  0  0  0  0  0
    6.8988    2.4969    5.7027 C   0  0  0  0  0  0  0  0  0  0  0  0
    7.3648    1.3496    6.6074 C   0  0  2  0  0  0  0  0  0  0  0  0
    7.4684    1.8422    8.0194 N   0  0  0  0  0  0  0  0  0  0  0  0
    8.7401    0.7702    6.2137 C   0  0  0  0  0  0  0  0  0  0  0  0
    9.0956    0.4723    5.0845 O   0  0  0  0  0  0  0  0  0  0  0  0
    9.5200    0.5807    7.3115 O   0  0  0  0  0  0  0  0  0  0  0  0
    8.1187    5.7992    2.4528 N   0  0  0  0  0  0  0  0  0  0  0  0
    8.8546    6.5087    1.3869 C   0  0  0  0  0  0  0  0  0  0  0  0
    9.0018    7.9765    1.7711 C   0  0  0  0  0  0  0  0  0  0  0  0
    7.6641    8.6410    1.8053 C   0  0  0  0  0  0  0  0  0  0  0  0
    6.9930    8.8470    2.8037 O   0  0  0  0  0  0  0  0  0  0  0  0
    7.2286    9.0127    0.5886 O   0  0  0  0  0  0  0  0  0  0  0  0
   10.2547    5.9205    1.1534 C   0  0  0  0  0  0  0  0  0  0  0  0
   11.1998    6.5617    0.7097 O   0  0  0  0  0  0  0  0  0  0  0  0
   10.3806    4.6122    1.4734 O   0  0  0  0  0  0  0  0  0  0  0  0
    6.9983    3.1656    1.1598 H   0  0  0  0  0  0  0  0  0  0  0  0
    6.4553    5.0895    3.9339 H   0  0  0  0  0  0  0  0  0  0  0  0
    4.9274    3.4544    3.9914 H   0  0  0  0  0  0  0  0  0  0  0  0
    5.5305    2.7601    2.5016 H   0  0  0  0  0  0  0  0  0  0  0  0
    7.4564    1.7507    3.7395 H   0  0  0  0  0  0  0  0  0  0  0  0
    5.8899    1.1789    4.3152 H   0  0  0  0  0  0  0  0  0  0  0  0
    6.0054    2.9557    6.1471 H   0  0  0  0  0  0  0  0  0  0  0  0
    7.6718    3.2747    5.6622 H   0  0  0  0  0  0  0  0  0  0  0  0
    6.6499    0.5194    6.5979 H   0  0  0  0  0  0  0  0  0  0  0  0
    6.5193    2.0220    8.3600 H   0  0  0  0  0  0  0  0  0  0  0  0
    7.9077    2.7700    8.0047 H   0  0  0  0  0  0  0  0  0  0  0  0
    8.9772    0.8854    8.0818 H   0  0  0  0  0  0  0  0  0  0  0  0
    8.4445    5.9693    3.3976 H   0  0  0  0  0  0  0  0  0  0  0  0
    8.3069    6.4253    0.4396 H   0  0  0  0  0  0  0  0  0  0  0  0
    9.6363    8.5274    1.0661 H   0  0  0  0  0  0  0  0  0  0  0  0
    9.4715    8.0905    2.7559 H   0  0  0  0  0  0  0  0  0  0  0  0
    6.3569    9.4298    0.7546 H   0  0  0  0  0  0  0  0  0  0  0  0
    9.4893    4.2156    1.6205 H   0  0  0  0  0  0  0  0  0  0  0  0
  1  2  2  0  0  0  0
  1 21  1  0  0  0  0
  2  3  1  0  0  0  0
  2 12  1  0  0  0  0
  3  4  1  0  0  0  0
  3 22  1  0  0  0  0
  4  5  1  0  0  0  0
  4 23  1  0  0  0  0
  4 24  1  0  0  0  0
  5  6  1  0  0  0  0
  5 25  1  0  0  0  0
  5 26  1  0  0  0  0
  6 27  1  0  0  0  0
  6 28  1  0  0  0  0
  7  9  1  0  0  0  0
  7  8  1  0  0  0  0
  7  6  1  0  0  0  0
  7 29  1  6  0  0  0
  8 30  1  0  0  0  0
  8 31  1  0  0  0  0
  9 10  2  0  0  0  0
  9 11  1  0  0  0  0
 11 32  1  0  0  0  0
 12 13  1  0  0  0  0
 12 33  1  0  0  0  0
 13 14  1  0  0  0  0
 13 18  1  0  0  0  0
 13 34  1  0  0  0  0
 14 15  1  0  0  0  0
 14 35  1  0  0  0  0
 14 36  1  0  0  0  0
 15 16  2  0  0  0  0
 15 17  1  0  0  0  0
 17 37  1  0  0  0  0
 18 19  2  0  0  0  0
 18 20  1  0  0  0  0
 20 38  1  0  0  0  0
M  END
$$$$
