CHEBI:18392
 OpenBabel04252409323D

119124  0  0  1  0  0  0  0  0999 V2000
   -0.4892  -16.9577   12.0658 C   0  0  0  0  0  0  0  0  0  0  0  0
    0.6189  -16.3625   12.5241 C   0  0  0  0  0  0  0  0  0  0  0  0
    0.6892  -14.9897   12.9449 C   0  0  0  0  0  0  0  0  0  0  0  0
    0.3211  -13.8454   12.3236 C   0  0  0  0  0  0  0  0  0  0  0  0
   -0.2045  -13.7453   10.9305 C   0  0  0  0  0  0  0  0  0  0  0  0
    0.6058  -12.6974   13.1777 C   0  0  0  0  0  0  0  0  0  0  0  0
    0.3829  -11.3793   13.0811 C   0  0  0  0  0  0  0  0  0  0  0  0
   -0.3223  -10.7292   12.0429 C   0  0  0  0  0  0  0  0  0  0  0  0
    0.3504   -9.7590   11.3439 N   0  0  0  0  0  0  0  0  0  0  0  0
   -0.4975   -9.1314   10.4651 C   0  0  0  0  0  0  0  0  0  0  0  0
   -0.0587   -7.9281    9.6912 C   0  0  0  0  0  0  0  0  0  0  0  0
    1.2264   -8.0995    8.9400 C   0  0  0  0  0  0  0  0  0  0  0  0
    1.3160   -8.9699    7.8823 N   0  0  0  0  0  0  0  0  0  0  0  0
    2.5265   -8.8330    7.2419 C   0  0  0  0  0  0  0  0  0  0  0  0
    2.7165   -9.6241    6.0810 C   0  0  0  0  0  0  0  0  0  0  0  0
    3.8370  -10.2408    5.6766 C   0  0  0  0  0  0  0  0  0  0  0  0
    3.8615  -10.8657    4.4605 N   0  0  0  0  0  0  0  0  0  0  0  0
    5.1054  -11.3289    4.1409 C   0  0  0  0  0  0  0  0  0  0  0  0
    5.4433  -11.8879    3.1145 O   0  0  0  0  0  0  0  0  0  0  0  0
    5.9665  -11.0291    5.3062 C   0  0  0  0  0  0  0  0  0  0  0  0
    7.3754  -11.4968    5.2891 C   0  0  0  0  0  0  0  0  0  0  0  0
    5.1916  -10.3964    6.2197 C   0  0  0  0  0  0  0  0  0  0  0  0
    5.6436  -10.1181    7.5710 C   0  0  0  0  0  0  0  0  0  0  0  0
    6.7831   -9.4895    7.8938 C   0  0  0  0  0  0  0  0  0  0  0  0
    3.2089   -7.8086    7.8821 C   0  0  0  0  0  0  0  0  0  0  0  0
    4.4593   -7.1352    7.4286 C   0  0  0  0  0  0  0  0  0  0  0  0
    2.4567   -7.4695    9.0619 C   0  0  0  0  0  0  0  0  0  0  0  0
    2.9032   -6.6063   10.2035 C   0  0  0  0  0  0  0  0  0  0  0  0
    3.2381   -5.1599    9.8754 C   0  0  0  0  0  0  0  0  0  0  0  0
    3.7851   -4.5398   11.1331 C   0  0  0  0  0  0  0  0  0  0  0  0
    3.1869   -4.5382   12.2020 O   0  0  0  0  0  0  0  0  0  0  0  0
    5.0530   -4.0878   10.9396 O   0  0  0  0  0  0  0  0  0  0  0  0
    5.6823   -3.6429   12.1451 C   0  0  2  0  0  0  0  0  0  0  0  0
    5.2021   -2.3445   12.4861 O   0  0  0  0  0  0  0  0  0  0  0  0
    5.6793   -1.8947   13.7530 C   0  0  2  0  0  0  0  0  0  0  0  0
    5.0013   -0.5723   14.1458 C   0  0  0  0  0  0  0  0  0  0  0  0
    3.9918   -0.1237   13.6209 O   0  0  0  0  0  0  0  0  0  0  0  0
    5.5917    0.0596   15.1924 O   0  0  0  0  0  0  0  0  0  0  0  0
    7.1994   -1.7235   13.6840 C   0  0  1  0  0  0  0  0  0  0  0  0
    7.7208   -1.4004   14.9867 O   0  0  0  0  0  0  0  0  0  0  0  0
    7.8607   -3.0153   13.1905 C   0  0  2  0  0  0  0  0  0  0  0  0
    9.2643   -2.7850   12.9804 O   0  0  0  0  0  0  0  0  0  0  0  0
    7.2052   -3.5669   11.9203 C   0  0  1  0  0  0  0  0  0  0  0  0
    7.7638   -4.8562   11.6343 O   0  0  0  0  0  0  0  0  0  0  0  0
   -1.7340   -9.7571   10.5560 C   0  0  0  0  0  0  0  0  0  0  0  0
   -2.9738   -9.4056    9.7857 C   0  0  0  0  0  0  0  0  0  0  0  0
   -3.8476   -8.4083   10.5383 C   0  0  0  0  0  0  0  0  0  0  0  0
   -5.0075   -7.9539    9.6934 C   0  0  0  0  0  0  0  0  0  0  0  0
   -5.0157   -7.9223    8.4718 O   0  0  0  0  0  0  0  0  0  0  0  0
   -6.0175   -7.5121   10.4938 O   0  0  0  0  0  0  0  0  0  0  0  0
   -7.0289   -6.7625    9.8060 C   0  0  2  0  0  0  0  0  0  0  0  0
   -6.5928   -5.4035    9.7280 O   0  0  0  0  0  0  0  0  0  0  0  0
   -7.5269   -4.5710    9.0039 C   0  0  2  0  0  0  0  0  0  0  0  0
   -6.8997   -3.1754    8.9604 C   0  0  0  0  0  0  0  0  0  0  0  0
   -7.2543   -2.2580    8.2380 O   0  0  0  0  0  0  0  0  0  0  0  0
   -5.8631   -3.0505    9.8335 O   0  0  0  0  0  0  0  0  0  0  0  0
   -8.8733   -4.5269    9.7318 C   0  0  1  0  0  0  0  0  0  0  0  0
   -9.8658   -3.8522    8.9583 O   0  0  0  0  0  0  0  0  0  0  0  0
   -9.3820   -5.9496    9.9943 C   0  0  2  0  0  0  0  0  0  0  0  0
  -10.5405   -5.8783   10.8407 O   0  0  0  0  0  0  0  0  0  0  0  0
   -8.3178   -6.8354   10.6407 C   0  0  1  0  0  0  0  0  0  0  0  0
   -8.8316   -8.1731   10.7205 O   0  0  0  0  0  0  0  0  0  0  0  0
   -1.6322  -10.7480   11.5916 C   0  0  0  0  0  0  0  0  0  0  0  0
   -2.7544  -11.5793   12.1161 C   0  0  0  0  0  0  0  0  0  0  0  0
    1.2305  -13.2156   14.2770 N   0  0  0  0  0  0  0  0  0  0  0  0
    1.3244  -14.5823   14.2292 C   0  0  0  0  0  0  0  0  0  0  0  0
    1.8270  -15.3120   15.0628 O   0  0  0  0  0  0  0  0  0  0  0  0
   -0.4801  -18.0113   11.8043 H   0  0  0  0  0  0  0  0  0  0  0  0
   -1.4310  -16.4270   11.9677 H   0  0  0  0  0  0  0  0  0  0  0  0
    1.5263  -16.9479   12.6609 H   0  0  0  0  0  0  0  0  0  0  0  0
   -0.0077  -14.6551   10.3540 H   0  0  0  0  0  0  0  0  0  0  0  0
    0.2772  -12.9319   10.3794 H   0  0  0  0  0  0  0  0  0  0  0  0
   -1.2856  -13.5935   10.9298 H   0  0  0  0  0  0  0  0  0  0  0  0
    0.7448  -10.7335   13.8795 H   0  0  0  0  0  0  0  0  0  0  0  0
    1.3222   -9.5075   11.4753 H   0  0  0  0  0  0  0  0  0  0  0  0
    0.0181   -7.0823   10.3850 H   0  0  0  0  0  0  0  0  0  0  0  0
   -0.8359   -7.6428    8.9714 H   0  0  0  0  0  0  0  0  0  0  0  0
    0.5745   -9.5995    7.6034 H   0  0  0  0  0  0  0  0  0  0  0  0
    1.8413   -9.7191    5.4389 H   0  0  0  0  0  0  0  0  0  0  0  0
    3.0930  -10.9273    3.8105 H   0  0  0  0  0  0  0  0  0  0  0  0
    7.8949  -11.0932    4.4129 H   0  0  0  0  0  0  0  0  0  0  0  0
    7.4143  -12.5892    5.2356 H   0  0  0  0  0  0  0  0  0  0  0  0
    7.9440  -11.1925    6.1694 H   0  0  0  0  0  0  0  0  0  0  0  0
    4.9602  -10.4107    8.3663 H   0  0  0  0  0  0  0  0  0  0  0  0
    7.4708   -9.1159    7.1411 H   0  0  0  0  0  0  0  0  0  0  0  0
    7.0323   -9.2940    8.9319 H   0  0  0  0  0  0  0  0  0  0  0  0
    4.8894   -7.5975    6.5384 H   0  0  0  0  0  0  0  0  0  0  0  0
    5.2084   -7.1249    8.2255 H   0  0  0  0  0  0  0  0  0  0  0  0
    4.2393   -6.0997    7.1498 H   0  0  0  0  0  0  0  0  0  0  0  0
    3.7814   -7.0905   10.6537 H   0  0  0  0  0  0  0  0  0  0  0  0
    2.1395   -6.6239   10.9915 H   0  0  0  0  0  0  0  0  0  0  0  0
    2.3626   -4.5939    9.5429 H   0  0  0  0  0  0  0  0  0  0  0  0
    3.9926   -5.0850    9.0890 H   0  0  0  0  0  0  0  0  0  0  0  0
    5.4765   -4.3643   12.9491 H   0  0  0  0  0  0  0  0  0  0  0  0
    5.3931   -2.6177   14.5287 H   0  0  0  0  0  0  0  0  0  0  0  0
    6.4214   -0.3852   15.4933 H   0  0  0  0  0  0  0  0  0  0  0  0
    7.4663   -0.8933   13.0188 H   0  0  0  0  0  0  0  0  0  0  0  0
    8.6815   -1.6038   14.9544 H   0  0  0  0  0  0  0  0  0  0  0  0
    7.8182   -3.7746   13.9821 H   0  0  0  0  0  0  0  0  0  0  0  0
    9.3725   -2.1492   12.2485 H   0  0  0  0  0  0  0  0  0  0  0  0
    7.4348   -2.9244   11.0617 H   0  0  0  0  0  0  0  0  0  0  0  0
    8.7341   -4.7662   11.7044 H   0  0  0  0  0  0  0  0  0  0  0  0
   -3.5488  -10.3165    9.5764 H   0  0  0  0  0  0  0  0  0  0  0  0
   -2.6909   -9.0073    8.8037 H   0  0  0  0  0  0  0  0  0  0  0  0
   -3.2740   -7.5174   10.8194 H   0  0  0  0  0  0  0  0  0  0  0  0
   -4.2317   -8.8697   11.4550 H   0  0  0  0  0  0  0  0  0  0  0  0
   -7.2107   -7.1779    8.8056 H   0  0  0  0  0  0  0  0  0  0  0  0
   -7.6064   -4.9308    7.9712 H   0  0  0  0  0  0  0  0  0  0  0  0
   -5.6879   -3.9287   10.2396 H   0  0  0  0  0  0  0  0  0  0  0  0
   -8.7774   -3.9876   10.6828 H   0  0  0  0  0  0  0  0  0  0  0  0
  -10.6983   -3.9228    9.4675 H   0  0  0  0  0  0  0  0  0  0  0  0
   -9.7317   -6.3997    9.0561 H   0  0  0  0  0  0  0  0  0  0  0  0
  -10.7806   -6.8070   11.0341 H   0  0  0  0  0  0  0  0  0  0  0  0
   -8.1342   -6.5073   11.6712 H   0  0  0  0  0  0  0  0  0  0  0  0
   -8.1361   -8.7206   11.1307 H   0  0  0  0  0  0  0  0  0  0  0  0
   -3.5194  -10.9408   12.5688 H   0  0  0  0  0  0  0  0  0  0  0  0
   -2.4210  -12.2869   12.8803 H   0  0  0  0  0  0  0  0  0  0  0  0
   -3.2195  -12.1502   11.3062 H   0  0  0  0  0  0  0  0  0  0  0  0
    1.5675  -12.6909   15.0696 H   0  0  0  0  0  0  0  0  0  0  0  0
  1  2  2  0  0  0  0
  1 68  1  0  0  0  0
  1 69  1  0  0  0  0
  2  3  1  0  0  0  0
  2 70  1  0  0  0  0
  3  4  2  0  0  0  0
  3 66  1  0  0  0  0
  4  5  1  0  0  0  0
  4  6  1  0  0  0  0
  5 71  1  0  0  0  0
  5 72  1  0  0  0  0
  5 73  1  0  0  0  0
  6  7  2  0  0  0  0
  6 65  1  0  0  0  0
  7  8  1  0  0  0  0
  7 74  1  0  0  0  0
  8  9  1  0  0  0  0
  8 63  2  0  0  0  0
  9 10  1  0  0  0  0
  9 75  1  0  0  0  0
 10 11  1  0  0  0  0
 10 45  2  0  0  0  0
 11 12  1  0  0  0  0
 11 76  1  0  0  0  0
 11 77  1  0  0  0  0
 12 13  1  0  0  0  0
 12 27  2  0  0  0  0
 13 14  1  0  0  0  0
 13 78  1  0  0  0  0
 14 15  1  0  0  0  0
 14 25  2  0  0  0  0
 15 16  2  0  0  0  0
 15 79  1  0  0  0  0
 16 17  1  0  0  0  0
 16 22  1  0  0  0  0
 17 18  1  0  0  0  0
 17 80  1  0  0  0  0
 18 19  2  0  0  0  0
 18 20  1  0  0  0  0
 20 21  1  0  0  0  0
 20 22  2  0  0  0  0
 21 81  1  0  0  0  0
 21 82  1  0  0  0  0
 21 83  1  0  0  0  0
 22 23  1  0  0  0  0
 23 24  2  0  0  0  0
 23 84  1  0  0  0  0
 24 85  1  0  0  0  0
 24 86  1  0  0  0  0
 25 26  1  0  0  0  0
 25 27  1  0  0  0  0
 26 87  1  0  0  0  0
 26 88  1  0  0  0  0
 26 89  1  0  0  0  0
 27 28  1  0  0  0  0
 28 29  1  0  0  0  0
 28 90  1  0  0  0  0
 28 91  1  0  0  0  0
 29 30  1  0  0  0  0
 29 92  1  0  0  0  0
 29 93  1  0  0  0  0
 30 31  2  0  0  0  0
 30 32  1  0  0  0  0
 33 34  1  0  0  0  0
 33 43  1  0  0  0  0
 33 32  1  0  0  0  0
 33 94  1  1  0  0  0
 34 35  1  0  0  0  0
 35 39  1  0  0  0  0
 35 36  1  0  0  0  0
 35 95  1  1  0  0  0
 36 37  2  0  0  0  0
 36 38  1  0  0  0  0
 38 96  1  0  0  0  0
 39 40  1  0  0  0  0
 39 41  1  0  0  0  0
 39 97  1  6  0  0  0
 40 98  1  0  0  0  0
 41 42  1  0  0  0  0
 41 43  1  0  0  0  0
 41 99  1  1  0  0  0
 42100  1  0  0  0  0
 43 44  1  0  0  0  0
 43101  1  6  0  0  0
 44102  1  0  0  0  0
 45 46  1  0  0  0  0
 45 63  1  0  0  0  0
 46 47  1  0  0  0  0
 46103  1  0  0  0  0
 46104  1  0  0  0  0
 47 48  1  0  0  0  0
 47105  1  0  0  0  0
 47106  1  0  0  0  0
 48 49  2  0  0  0  0
 48 50  1  0  0  0  0
 51 52  1  0  0  0  0
 51 61  1  0  0  0  0
 51 50  1  0  0  0  0
 51107  1  6  0  0  0
 52 53  1  0  0  0  0
 53 57  1  0  0  0  0
 53 54  1  0  0  0  0
 53108  1  6  0  0  0
 54 55  2  0  0  0  0
 54 56  1  0  0  0  0
 56109  1  0  0  0  0
 57 58  1  0  0  0  0
 57 59  1  0  0  0  0
 57110  1  1  0  0  0
 58111  1  0  0  0  0
 59 60  1  0  0  0  0
 59 61  1  0  0  0  0
 59112  1  6  0  0  0
 60113  1  0  0  0  0
 61 62  1  0  0  0  0
 61114  1  1  0  0  0
 62115  1  0  0  0  0
 63 64  1  0  0  0  0
 64116  1  0  0  0  0
 64117  1  0  0  0  0
 64118  1  0  0  0  0
 65 66  1  0  0  0  0
 65119  1  0  0  0  0
 66 67  2  0  0  0  0
M  END
$$$$
