CHEBI:17201
 OpenBabel04242416003D

 17 16  0  0  0  0  0  0  0  0999 V2000
    2.2546   -0.8117    0.8939 N   0  0  0  0  0  0  0  0  0  0  0  0
    2.0325    0.6096    0.5473 C   0  0  0  0  0  0  0  0  0  0  0  0
    2.9240    1.5251    1.3962 C   0  0  0  0  0  0  0  0  0  0  0  0
    2.7471    2.7331    1.4920 O   0  0  0  0  0  0  0  0  0  0  0  0
    3.9438    0.8627    2.0455 N   0  0  0  0  0  0  0  0  0  0  0  0
    5.0708    1.5569    2.6628 C   0  0  0  0  0  0  0  0  0  0  0  0
    4.9109    1.7305    4.1704 C   0  0  0  0  0  0  0  0  0  0  0  0
    5.7919    2.1504    4.9066 O   0  0  0  0  0  0  0  0  0  0  0  0
    3.6860    1.3774    4.6286 O   0  0  0  0  0  0  0  0  0  0  0  0
    1.7553   -1.3836    0.2089 H   0  0  0  0  0  0  0  0  0  0  0  0
    1.7845   -1.0025    1.7814 H   0  0  0  0  0  0  0  0  0  0  0  0
    0.9842    0.8710    0.7184 H   0  0  0  0  0  0  0  0  0  0  0  0
    2.2854    0.7730   -0.5044 H   0  0  0  0  0  0  0  0  0  0  0  0
    4.0484   -0.1148    1.7686 H   0  0  0  0  0  0  0  0  0  0  0  0
    5.1875    2.5454    2.2092 H   0  0  0  0  0  0  0  0  0  0  0  0
    5.9594    0.9471    2.4775 H   0  0  0  0  0  0  0  0  0  0  0  0
    3.1249    1.1375    3.8633 H   0  0  0  0  0  0  0  0  0  0  0  0
  1  2  1  0  0  0  0
  1 10  1  0  0  0  0
  1 11  1  0  0  0  0
  2  3  1  0  0  0  0
  2 12  1  0  0  0  0
  2 13  1  0  0  0  0
  3  4  2  0  0  0  0
  3  5  1  0  0  0  0
  5  6  1  0  0  0  0
  5 14  1  0  0  0  0
  6  7  1  0  0  0  0
  6 15  1  0  0  0  0
  6 16  1  0  0  0  0
  7  8  2  0  0  0  0
  7  9  1  0  0  0  0
  9 17  1  0  0  0  0
M  END
$$$$
