CHEBI:27375
 OpenBabel04252409423D

117125  0  0  1  0  0  0  0  0999 V2000
    0.2008   -2.6331    6.9430 C   0  0  0  0  0  0  0  0  0  0  0  0
   -0.6225   -3.4339    5.9471 C   0  0  0  0  0  0  0  0  0  0  0  0
   -0.4895   -3.0317    4.4631 C   0  0  2  0  0  0  0  0  0  0  0  0
   -1.2990   -3.9902    3.7427 O   0  0  0  0  0  0  0  0  0  0  0  0
    0.9714   -3.1300    3.9447 C   0  0  0  0  0  0  0  0  0  0  0  0
    0.9757   -2.6563    2.4880 C   0  0  1  0  0  0  0  0  0  0  0  0
    0.5685   -1.1796    2.4467 C   0  0  0  0  0  0  0  0  0  0  0  0
   -0.8258   -1.0411    2.8379 N   0  0  0  0  0  0  0  0  0  0  0  0
   -1.7915   -1.3837    1.7750 C   0  0  0  0  0  0  0  0  0  0  0  0
   -1.5075   -2.4292    0.6528 C   0  0  0  0  0  0  0  0  0  0  0  0
   -0.4792   -2.0349   -0.3980 C   0  0  0  0  0  0  0  0  0  0  0  0
    0.8694   -2.4174   -0.5924 C   0  0  0  0  0  0  0  0  0  0  0  0
    1.2342   -1.8543   -1.8040 N   0  0  0  0  0  0  0  0  0  0  0  0
    0.2614   -1.0443   -2.3233 C   0  0  0  0  0  0  0  0  0  0  0  0
    0.2641   -0.2584   -3.4827 C   0  0  0  0  0  0  0  0  0  0  0  0
   -0.9044    0.4426   -3.7943 C   0  0  0  0  0  0  0  0  0  0  0  0
   -2.0286    0.3531   -2.9798 C   0  0  0  0  0  0  0  0  0  0  0  0
   -2.0061   -0.4366   -1.8248 C   0  0  0  0  0  0  0  0  0  0  0  0
   -0.8331   -1.1458   -1.4806 C   0  0  0  0  0  0  0  0  0  0  0  0
    1.8823   -3.3774    0.1611 C   0  0  1  0  0  0  0  0  0  0  0  0
    1.1481   -4.7719    0.1164 C   0  0  0  0  0  0  0  0  0  0  0  0
    0.6776   -5.2824   -0.8983 O   0  0  0  0  0  0  0  0  0  0  0  0
    1.1283   -5.3970    1.3323 O   0  0  0  0  0  0  0  0  0  0  0  0
    0.3145   -6.5693    1.3698 C   0  0  0  0  0  0  0  0  0  0  0  0
    3.3009   -3.5018   -0.5393 C   0  0  0  0  0  0  0  0  0  0  0  0
    3.8280   -4.7661   -0.8980 C   0  0  0  0  0  0  0  0  0  0  0  0
    5.0838   -4.8714   -1.5058 C   0  0  0  0  0  0  0  0  0  0  0  0
    5.8485   -3.7438   -1.7684 C   0  0  0  0  0  0  0  0  0  0  0  0
    5.3870   -2.4963   -1.3828 C   0  0  0  0  0  0  0  0  0  0  0  0
    4.1213   -2.3643   -0.7884 C   0  0  0  0  0  0  0  0  0  0  0  0
    3.6196   -1.1413   -0.4174 O   0  0  0  0  0  0  0  0  0  0  0  0
    4.1043   -0.0013   -1.1222 C   0  0  0  0  0  0  0  0  0  0  0  0
    7.0561   -4.0229   -2.4091 N   0  0  0  0  0  0  0  0  0  0  0  0
    7.4780   -3.1483   -3.4924 C   0  0  0  0  0  0  0  0  0  0  0  0
    7.1041   -5.4967   -2.6292 C   0  0  1  0  0  0  0  0  0  0  0  0
    8.4463   -6.0905   -2.1200 C   0  0  1  0  0  0  0  0  0  0  0  0
    9.2951   -6.1507   -3.3296 O   0  0  0  0  0  0  0  0  0  0  0  0
    9.2905   -5.2218   -1.1411 C   0  0  0  0  0  0  0  0  0  0  0  0
    8.8933   -4.5085   -0.2335 O   0  0  0  0  0  0  0  0  0  0  0  0
   10.6263   -5.4663   -1.3740 O   0  0  0  0  0  0  0  0  0  0  0  0
   11.5506   -4.7988   -0.5123 C   0  0  0  0  0  0  0  0  0  0  0  0
    8.3342   -7.5089   -1.5075 C   0  0  2  0  0  0  0  0  0  0  0  0
    8.2645   -8.4890   -2.5860 O   0  0  0  0  0  0  0  0  0  0  0  0
    9.4533   -8.9439   -3.0653 C   0  0  0  0  0  0  0  0  0  0  0  0
    9.2373   -9.9535   -4.1474 C   0  0  0  0  0  0  0  0  0  0  0  0
   10.5549   -8.5729   -2.6778 O   0  0  0  0  0  0  0  0  0  0  0  0
    7.1265   -7.7121   -0.5285 C   0  0  2  0  0  0  0  0  0  0  0  0
    7.2974   -6.8623    0.7678 C   0  0  0  0  0  0  0  0  0  0  0  0
    6.3461   -7.1694    1.9269 C   0  0  0  0  0  0  0  0  0  0  0  0
    7.1153   -9.1950   -0.1086 C   0  0  0  0  0  0  0  0  0  0  0  0
    6.1420  -10.0432   -0.4849 C   0  0  0  0  0  0  0  0  0  0  0  0
    5.0125   -9.6474   -1.3961 C   0  0  0  0  0  0  0  0  0  0  0  0
    5.3412   -8.4262   -2.1233 N   0  0  0  0  0  0  0  0  0  0  0  0
    4.2395   -7.8702   -2.8892 C   0  0  0  0  0  0  0  0  0  0  0  0
    4.8589   -6.5522   -3.3248 C   0  0  0  0  0  0  0  0  0  0  0  0
    5.7441   -6.0937   -2.1163 C   0  0  2  0  0  0  0  0  0  0  0  0
    5.7819   -7.3465   -1.2152 C   0  0  2  0  0  0  0  0  0  0  0  0
    2.2147   -2.9321    1.6481 C   0  0  0  0  0  0  0  0  0  0  0  0
   -1.0856   -1.6185    4.1734 C   0  0  0  0  0  0  0  0  0  0  0  0
    0.0051   -2.9967    7.9576 H   0  0  0  0  0  0  0  0  0  0  0  0
   -0.0520   -1.5703    6.9211 H   0  0  0  0  0  0  0  0  0  0  0  0
    1.2730   -2.7436    6.7598 H   0  0  0  0  0  0  0  0  0  0  0  0
   -1.6806   -3.3780    6.2363 H   0  0  0  0  0  0  0  0  0  0  0  0
   -0.3569   -4.4944    6.0548 H   0  0  0  0  0  0  0  0  0  0  0  0
   -0.8724   -4.8586    3.8328 H   0  0  0  0  0  0  0  0  0  0  0  0
    1.3166   -4.1695    3.9964 H   0  0  0  0  0  0  0  0  0  0  0  0
    1.6563   -2.5165    4.5392 H   0  0  0  0  0  0  0  0  0  0  0  0
    0.2158   -3.2749    2.0424 H   0  0  0  0  0  0  0  0  0  0  0  0
    0.7492   -0.6974    1.4823 H   0  0  0  0  0  0  0  0  0  0  0  0
    1.1945   -0.6084    3.1465 H   0  0  0  0  0  0  0  0  0  0  0  0
   -2.0035   -0.4312    1.2708 H   0  0  0  0  0  0  0  0  0  0  0  0
   -2.7483   -1.6578    2.2384 H   0  0  0  0  0  0  0  0  0  0  0  0
   -2.4603   -2.5509    0.1147 H   0  0  0  0  0  0  0  0  0  0  0  0
   -1.3406   -3.4355    1.0403 H   0  0  0  0  0  0  0  0  0  0  0  0
    2.1284   -1.9900   -2.2501 H   0  0  0  0  0  0  0  0  0  0  0  0
    1.1358   -0.1988   -4.1251 H   0  0  0  0  0  0  0  0  0  0  0  0
   -0.9376    1.0594   -4.6891 H   0  0  0  0  0  0  0  0  0  0  0  0
   -2.9333    0.8963   -3.2404 H   0  0  0  0  0  0  0  0  0  0  0  0
   -2.8923   -0.4991   -1.2006 H   0  0  0  0  0  0  0  0  0  0  0  0
    0.3451   -6.9680    2.3876 H   0  0  0  0  0  0  0  0  0  0  0  0
    0.6974   -7.3309    0.6845 H   0  0  0  0  0  0  0  0  0  0  0  0
   -0.7245   -6.3165    1.1334 H   0  0  0  0  0  0  0  0  0  0  0  0
    3.2614   -5.6797   -0.7452 H   0  0  0  0  0  0  0  0  0  0  0  0
    6.0296   -1.6366   -1.5298 H   0  0  0  0  0  0  0  0  0  0  0  0
    4.1996   -0.1909   -2.1976 H   0  0  0  0  0  0  0  0  0  0  0  0
    5.0549    0.3332   -0.6968 H   0  0  0  0  0  0  0  0  0  0  0  0
    3.3734    0.8034   -0.9971 H   0  0  0  0  0  0  0  0  0  0  0  0
    7.6417   -2.1258   -3.1376 H   0  0  0  0  0  0  0  0  0  0  0  0
    6.7362   -3.1315   -4.2986 H   0  0  0  0  0  0  0  0  0  0  0  0
    8.4284   -3.4953   -3.9114 H   0  0  0  0  0  0  0  0  0  0  0  0
    7.1128   -5.6340   -3.7198 H   0  0  0  0  0  0  0  0  0  0  0  0
   10.1698   -6.4785   -3.0256 H   0  0  0  0  0  0  0  0  0  0  0  0
   11.1627   -4.6676    0.5019 H   0  0  0  0  0  0  0  0  0  0  0  0
   11.8164   -3.8333   -0.9507 H   0  0  0  0  0  0  0  0  0  0  0  0
   12.4530   -5.4142   -0.4515 H   0  0  0  0  0  0  0  0  0  0  0  0
    9.2427   -7.7278   -0.9275 H   0  0  0  0  0  0  0  0  0  0  0  0
    8.5680   -9.5459   -4.9091 H   0  0  0  0  0  0  0  0  0  0  0  0
    8.8275  -10.8717   -3.7213 H   0  0  0  0  0  0  0  0  0  0  0  0
   10.1965  -10.1793   -4.6235 H   0  0  0  0  0  0  0  0  0  0  0  0
    8.3227   -6.9755    1.1440 H   0  0  0  0  0  0  0  0  0  0  0  0
    7.1500   -5.8062    0.5351 H   0  0  0  0  0  0  0  0  0  0  0  0
    6.3923   -8.2163    2.2386 H   0  0  0  0  0  0  0  0  0  0  0  0
    5.3104   -6.9246    1.6770 H   0  0  0  0  0  0  0  0  0  0  0  0
    6.6217   -6.5607    2.7950 H   0  0  0  0  0  0  0  0  0  0  0  0
    7.9286   -9.5559    0.5171 H   0  0  0  0  0  0  0  0  0  0  0  0
    6.1622  -11.0744   -0.1442 H   0  0  0  0  0  0  0  0  0  0  0  0
    4.0991   -9.5378   -0.7984 H   0  0  0  0  0  0  0  0  0  0  0  0
    4.8453  -10.4565   -2.1160 H   0  0  0  0  0  0  0  0  0  0  0  0
    3.3455   -7.7029   -2.2763 H   0  0  0  0  0  0  0  0  0  0  0  0
    3.9706   -8.4921   -3.7482 H   0  0  0  0  0  0  0  0  0  0  0  0
    4.0883   -5.8302   -3.6174 H   0  0  0  0  0  0  0  0  0  0  0  0
    5.4708   -6.7481   -4.2146 H   0  0  0  0  0  0  0  0  0  0  0  0
    5.0076   -7.2497   -0.4427 H   0  0  0  0  0  0  0  0  0  0  0  0
    2.8512   -2.0412    1.6722 H   0  0  0  0  0  0  0  0  0  0  0  0
    2.8119   -3.7220    2.1243 H   0  0  0  0  0  0  0  0  0  0  0  0
   -2.1650   -1.6211    4.3711 H   0  0  0  0  0  0  0  0  0  0  0  0
   -0.6582   -0.9068    4.8896 H   0  0  0  0  0  0  0  0  0  0  0  0
  1  2  1  0  0  0  0
  1 60  1  0  0  0  0
  1 61  1  0  0  0  0
  1 62  1  0  0  0  0
  2 63  1  0  0  0  0
  2 64  1  0  0  0  0
  3  5  1  0  0  0  0
  3 59  1  0  0  0  0
  3  4  1  6  0  0  0
  3  2  1  0  0  0  0
  4 65  1  0  0  0  0
  5  6  1  0  0  0  0
  5 66  1  0  0  0  0
  5 67  1  0  0  0  0
  6  7  1  0  0  0  0
  6 58  1  0  0  0  0
  6 68  1  6  0  0  0
  7  8  1  0  0  0  0
  7 69  1  0  0  0  0
  7 70  1  0  0  0  0
  8  9  1  0  0  0  0
  8 59  1  0  0  0  0
  9 10  1  0  0  0  0
  9 71  1  0  0  0  0
  9 72  1  0  0  0  0
 10 11  1  0  0  0  0
 10 73  1  0  0  0  0
 10 74  1  0  0  0  0
 11 12  2  0  0  0  0
 11 19  1  0  0  0  0
 12 13  1  0  0  0  0
 12 20  1  0  0  0  0
 13 14  1  0  0  0  0
 13 75  1  0  0  0  0
 14 15  1  0  0  0  0
 14 19  2  0  0  0  0
 15 16  2  0  0  0  0
 15 76  1  0  0  0  0
 16 17  1  0  0  0  0
 16 77  1  0  0  0  0
 17 18  2  0  0  0  0
 17 78  1  0  0  0  0
 18 19  1  0  0  0  0
 18 79  1  0  0  0  0
 20 58  1  0  0  0  0
 20 25  1  0  0  0  0
 20 21  1  1  0  0  0
 21 22  2  0  0  0  0
 21 23  1  0  0  0  0
 23 24  1  0  0  0  0
 24 80  1  0  0  0  0
 24 81  1  0  0  0  0
 24 82  1  0  0  0  0
 25 26  1  0  0  0  0
 25 30  2  0  0  0  0
 26 27  2  0  0  0  0
 26 83  1  0  0  0  0
 27 28  1  0  0  0  0
 28 29  2  0  0  0  0
 28 33  1  0  0  0  0
 29 30  1  0  0  0  0
 29 84  1  0  0  0  0
 30 31  1  0  0  0  0
 31 32  1  0  0  0  0
 32 85  1  0  0  0  0
 32 86  1  0  0  0  0
 32 87  1  0  0  0  0
 33 35  1  0  0  0  0
 33 34  1  0  0  0  0
 34 88  1  0  0  0  0
 34 89  1  0  0  0  0
 34 90  1  0  0  0  0
 35 36  1  0  0  0  0
 35 56  1  0  0  0  0
 35 91  1  6  0  0  0
 36 42  1  0  0  0  0
 36 38  1  1  0  0  0
 36 37  1  0  0  0  0
 37 92  1  0  0  0  0
 38 39  2  0  0  0  0
 38 40  1  0  0  0  0
 40 41  1  0  0  0  0
 41 93  1  0  0  0  0
 41 94  1  0  0  0  0
 41 95  1  0  0  0  0
 42 47  1  0  0  0  0
 42 43  1  0  0  0  0
 42 96  1  1  0  0  0
 43 44  1  0  0  0  0
 44 45  1  0  0  0  0
 44 46  2  0  0  0  0
 45 97  1  0  0  0  0
 45 98  1  0  0  0  0
 45 99  1  0  0  0  0
 47 50  1  0  0  0  0
 47 57  1  0  0  0  0
 47 48  1  1  0  0  0
 48 49  1  0  0  0  0
 48100  1  0  0  0  0
 48101  1  0  0  0  0
 49102  1  0  0  0  0
 49103  1  0  0  0  0
 49104  1  0  0  0  0
 50 51  2  0  0  0  0
 50105  1  0  0  0  0
 51 52  1  0  0  0  0
 51106  1  0  0  0  0
 52 53  1  0  0  0  0
 52107  1  0  0  0  0
 52108  1  0  0  0  0
 53 54  1  0  0  0  0
 53 57  1  0  0  0  0
 54 55  1  0  0  0  0
 54109  1  0  0  0  0
 54110  1  0  0  0  0
 55 56  1  0  0  0  0
 55111  1  0  0  0  0
 55112  1  0  0  0  0
 56 27  1  1  0  0  0
 56 57  1  0  0  0  0
 57113  1  1  0  0  0
 58114  1  0  0  0  0
 58115  1  0  0  0  0
 59116  1  0  0  0  0
 59117  1  0  0  0  0
M  END
$$$$
