CHEBI:17180
 OpenBabel04242415593D

 10  9  0  0  0  0  0  0  0  0999 V2000
    2.2614    2.3407    0.0462 O   0  0  0  0  0  0  0  0  0  0  0  0
    1.8260    1.2122   -0.3492 C   0  0  0  0  0  0  0  0  0  0  0  0
    0.8332    1.0023   -1.1123 O   0  5  0  0  0  0  0  0  0  0  0  0
    2.6040    0.0102    0.1683 C   0  0  0  0  0  0  0  0  0  0  0  0
    2.2603   -1.1302   -0.1585 O   0  0  0  0  0  0  0  0  0  0  0  0
    3.7824    0.2760    1.0730 C   0  0  0  0  0  0  0  0  0  0  0  0
    4.3993   -0.9554    1.4691 O   0  0  0  0  0  0  0  0  0  0  0  0
    3.4488    0.7931    1.9761 H   0  0  0  0  0  0  0  0  0  0  0  0
    4.5292    0.8735    0.5442 H   0  0  0  0  0  0  0  0  0  0  0  0
    3.8723   -1.6499    1.0205 H   0  0  0  0  0  0  0  0  0  0  0  0
  1  2  2  0  0  0  0
  2  3  1  0  0  0  0
  2  4  1  0  0  0  0
  4  5  2  0  0  0  0
  4  6  1  0  0  0  0
  6  7  1  0  0  0  0
  6  8  1  0  0  0  0
  6  9  1  0  0  0  0
  7 10  1  0  0  0  0
M  CHG  1   3  -1
M  END
$$$$
