CHEBI:16000
 OpenBabel04242413363D

 11 10  0  0  0  0  0  0  0  0999 V2000
    0.9841    0.1463   -0.0451 N   0  0  0  0  0  0  0  0  0  0  0  0
    2.4416    0.0760   -0.0111 C   0  0  0  0  0  0  0  0  0  0  0  0
    3.0163   -0.6502   -1.2307 C   0  0  0  0  0  0  0  0  0  0  0  0
    4.4388   -0.6753   -1.1655 O   0  0  0  0  0  0  0  0  0  0  0  0
    0.6514    0.6018    0.8045 H   0  0  0  0  0  0  0  0  0  0  0  0
    0.5980   -0.7978   -0.0250 H   0  0  0  0  0  0  0  0  0  0  0  0
    2.7689   -0.4293    0.9048 H   0  0  0  0  0  0  0  0  0  0  0  0
    2.8525    1.0909    0.0353 H   0  0  0  0  0  0  0  0  0  0  0  0
    2.7210   -0.1591   -2.1641 H   0  0  0  0  0  0  0  0  0  0  0  0
    2.6643   -1.6864   -1.2642 H   0  0  0  0  0  0  0  0  0  0  0  0
    4.7453    0.2419   -1.2721 H   0  0  0  0  0  0  0  0  0  0  0  0
  1  2  1  0  0  0  0
  1  5  1  0  0  0  0
  1  6  1  0  0  0  0
  2  3  1  0  0  0  0
  2  7  1  0  0  0  0
  2  8  1  0  0  0  0
  3  4  1  0  0  0  0
  3  9  1  0  0  0  0
  3 10  1  0  0  0  0
  4 11  1  0  0  0  0
M  END
$$$$
