CHEBI:16682
 OpenBabel04242415033D

 18 17  0  0  0  0  0  0  0  0999 V2000
    1.3122   -2.7171   -0.2502 C   0  0  0  0  0  0  0  0  0  0  0  0
    2.8022   -2.5140   -0.2236 C   0  0  0  0  0  0  0  0  0  0  0  0
    3.5519   -3.2070    0.4551 O   0  0  0  0  0  0  0  0  0  0  0  0
    3.2394   -1.5168   -1.0663 N   0  0  0  0  0  0  0  0  0  0  0  0
    4.6353   -1.1175   -1.1234 C   0  0  0  0  0  0  0  0  0  0  0  0
    5.5171   -2.1696   -1.7846 C   0  0  0  0  0  0  0  0  0  0  0  0
    6.9393   -1.6842   -1.8638 C   0  0  0  0  0  0  0  0  0  0  0  0
    7.2720   -0.5099   -1.9092 O   0  0  0  0  0  0  0  0  0  0  0  0
    7.8386   -2.6917   -1.9386 O   0  0  0  0  0  0  0  0  0  0  0  0
    1.0035   -3.2651    0.6444 H   0  0  0  0  0  0  0  0  0  0  0  0
    1.0396   -3.2911   -1.1396 H   0  0  0  0  0  0  0  0  0  0  0  0
    0.7931   -1.7545   -0.2588 H   0  0  0  0  0  0  0  0  0  0  0  0
    2.5550   -0.9295   -1.5268 H   0  0  0  0  0  0  0  0  0  0  0  0
    4.9770   -0.9179   -0.1008 H   0  0  0  0  0  0  0  0  0  0  0  0
    4.6713   -0.1730   -1.6774 H   0  0  0  0  0  0  0  0  0  0  0  0
    5.1688   -2.3888   -2.7996 H   0  0  0  0  0  0  0  0  0  0  0  0
    5.4876   -3.0978   -1.2052 H   0  0  0  0  0  0  0  0  0  0  0  0
    7.4424   -3.5829   -1.8839 H   0  0  0  0  0  0  0  0  0  0  0  0
  1  2  1  0  0  0  0
  1 10  1  0  0  0  0
  1 11  1  0  0  0  0
  1 12  1  0  0  0  0
  2  3  2  0  0  0  0
  2  4  1  0  0  0  0
  4  5  1  0  0  0  0
  4 13  1  0  0  0  0
  5  6  1  0  0  0  0
  5 14  1  0  0  0  0
  5 15  1  0  0  0  0
  6  7  1  0  0  0  0
  6 16  1  0  0  0  0
  6 17  1  0  0  0  0
  7  8  2  0  0  0  0
  7  9  1  0  0  0  0
  9 18  1  0  0  0  0
M  END
$$$$
