CHEBI:17329
 OpenBabel04242416193D

152154  0  0  1  0  0  0  0  0999 V2000
    4.6430   26.7765   -6.2903 C   0  0  0  0  0  0  0  0  0  0  0  0
    5.4676   25.5205   -6.3400 C   0  0  0  0  0  0  0  0  0  0  0  0
    5.7704   24.9659   -7.3909 O   0  0  0  0  0  0  0  0  0  0  0  0
    5.8007   25.0236   -5.0950 N   0  0  0  0  0  0  0  0  0  0  0  0
    6.1198   23.6032   -4.9795 C   0  0  1  0  0  0  0  0  0  0  0  0
    7.4519   23.1019   -5.6199 C   0  0  0  0  0  0  0  0  0  0  0  0
    8.3455   24.0947   -6.0963 O   0  0  0  0  0  0  0  0  0  0  0  0
    9.7425   23.5652   -6.7142 P   0  0  0  0  0  0  0  0  0  0  0  0
   10.9385   24.2916   -6.1906 O   0  0  0  0  0  0  0  0  0  0  0  0
    9.5015   23.7472   -8.2809 O   0  0  0  0  0  0  0  0  0  0  0  0
    9.7272   22.0131   -6.4854 O   0  0  0  0  0  0  0  0  0  0  0  0
   10.7085   20.7956   -6.5262 P   0  0  0  0  0  0  0  0  0  0  0  0
   10.5107   19.8546   -7.6677 O   0  0  0  0  0  0  0  0  0  0  0  0
   12.1809   21.3986   -6.4002 O   0  0  0  0  0  0  0  0  0  0  0  0
   10.5106   20.1102   -5.0677 O   0  0  0  0  0  0  0  0  0  0  0  0
    9.4064   19.2167   -4.9307 C   0  0  0  0  0  0  0  0  0  0  0  0
    9.2488   18.5882   -3.5267 C   0  0  1  0  0  0  0  0  0  0  0  0
   10.4750   18.5254   -2.7694 O   0  0  0  0  0  0  0  0  0  0  0  0
   10.0575   18.3679   -1.3905 C   0  0  1  0  0  0  0  0  0  0  0  0
   11.2299   18.4675   -0.5206 N   0  0  0  0  0  0  0  0  0  0  0  0
   11.6928   19.6681   -0.0147 C   0  0  0  0  0  0  0  0  0  0  0  0
   12.8005   19.7522    0.7269 C   0  0  0  0  0  0  0  0  0  0  0  0
   13.5684   18.5311    1.0036 C   0  0  0  0  0  0  0  0  0  0  0  0
   14.6233   18.5748    1.6248 O   0  0  0  0  0  0  0  0  0  0  0  0
   13.0310   17.3792    0.5161 N   0  0  0  0  0  0  0  0  0  0  0  0
   11.9101   17.2751   -0.2681 C   0  0  0  0  0  0  0  0  0  0  0  0
   11.5746   16.1721   -0.6953 O   0  0  0  0  0  0  0  0  0  0  0  0
    8.9312   19.4027   -1.2582 C   0  0  2  0  0  0  0  0  0  0  0  0
    8.0456   19.2166   -0.1618 O   0  0  0  0  0  0  0  0  0  0  0  0
    8.2103   19.2601   -2.6075 C   0  0  2  0  0  0  0  0  0  0  0  0
    7.0398   18.4464   -2.4155 O   0  0  0  0  0  0  0  0  0  0  0  0
    8.1377   22.2891   -4.6693 O   0  0  0  0  0  0  0  0  0  0  0  0
    8.4454   23.0594   -3.5170 C   0  0  2  0  0  0  0  0  0  0  0  0
    9.7496   22.4961   -2.9519 C   0  0  0  0  0  0  0  0  0  0  0  0
   10.0427   22.9552   -1.6480 O   0  0  0  0  0  0  0  0  0  0  0  0
    7.1903   23.0606   -2.6422 C   0  0  1  0  0  0  0  0  0  0  0  0
    7.2156   24.2198   -1.8022 O   0  0  0  0  0  0  0  0  0  0  0  0
    5.8825   23.0553   -3.5230 C   0  0  2  0  0  0  0  0  0  0  0  0
    5.3554   21.6988   -3.5735 O   0  0  0  0  0  0  0  0  0  0  0  0
    4.0133   21.5744   -4.0588 C   0  0  0  0  0  0  0  0  0  0  0  0
    3.8825   20.1879   -4.6849 C   0  0  0  0  0  0  0  0  0  0  0  0
    2.8256   21.8934   -3.1094 C   0  0  0  0  0  0  0  0  0  0  0  0
    2.0664   22.8337   -3.3637 O   0  0  0  0  0  0  0  0  0  0  0  0
    2.5726   21.1550   -1.9965 N   0  0  0  0  0  0  0  0  0  0  0  0
    3.3984   20.1424   -1.3625 C   0  0  1  0  0  0  0  0  0  0  0  0
    4.6968   20.7226   -0.8227 C   0  0  0  0  0  0  0  0  0  0  0  0
    2.6096   19.4710   -0.2209 C   0  0  0  0  0  0  0  0  0  0  0  0
    1.5764   19.9510    0.2441 O   0  0  0  0  0  0  0  0  0  0  0  0
    3.0691   18.2817    0.2801 N   0  0  0  0  0  0  0  0  0  0  0  0
    4.1432   17.4371   -0.2649 C   0  0  2  0  0  0  0  0  0  0  0  0
    4.9833   16.8089    0.8605 C   0  0  0  0  0  0  0  0  0  0  0  0
    5.4898   17.8445    1.8673 C   0  0  0  0  0  0  0  0  0  0  0  0
    6.4403   17.2442    2.8595 C   0  0  0  0  0  0  0  0  0  0  0  0
    7.6449   17.0902    2.7111 O   0  0  0  0  0  0  0  0  0  0  0  0
    5.8318   16.8488    3.9909 O   0  0  0  0  0  0  0  0  0  0  0  0
    3.5552   16.3697   -1.2377 C   0  0  0  0  0  0  0  0  0  0  0  0
    4.1525   15.3352   -1.5143 O   0  0  0  0  0  0  0  0  0  0  0  0
    2.3740   16.7499   -1.8548 N   0  0  0  0  0  0  0  0  0  0  0  0
    1.5862   15.8558   -2.7046 C   0  0  1  0  0  0  0  0  0  0  0  0
    0.1145   15.8529   -2.2326 C   0  0  0  0  0  0  0  0  0  0  0  0
   -0.0973   15.2875   -0.8225 C   0  0  0  0  0  0  0  0  0  0  0  0
   -1.4312   15.7137   -0.1924 C   0  0  0  0  0  0  0  0  0  0  0  0
   -2.6844   14.9864   -0.6852 C   0  0  0  0  0  0  0  0  0  0  0  0
   -3.0315   15.1085   -2.0876 N   0  0  0  0  0  0  0  0  0  0  0  0
   -3.2110   16.3209   -2.7261 C   0  0  0  0  0  0  0  0  0  0  0  0
   -2.9349   17.4030   -2.2138 O   0  0  0  0  0  0  0  0  0  0  0  0
   -3.8385   16.2039   -4.1402 C   0  0  2  0  0  0  0  0  0  0  0  0
   -3.0184   15.2975   -5.0451 C   0  0  0  0  0  0  0  0  0  0  0  0
   -3.9121   17.5349   -4.7692 N   0  0  0  0  0  0  0  0  0  0  0  0
    1.7236   16.1723   -4.2404 C   0  0  0  0  0  0  0  0  0  0  0  0
    2.6952   15.7957   -4.8913 O   0  0  0  0  0  0  0  0  0  0  0  0
    0.6926   16.8998   -4.8022 N   0  0  0  0  0  0  0  0  0  0  0  0
    0.2902   16.9042   -6.2154 C   0  0  2  0  0  0  0  0  0  0  0  0
    0.3828   15.5425   -6.9231 C   0  0  0  0  0  0  0  0  0  0  0  0
    0.7101   18.0399   -7.1927 C   0  0  0  0  0  0  0  0  0  0  0  0
    1.7728   18.6452   -7.1529 O   0  0  0  0  0  0  0  0  0  0  0  0
   -0.2684   18.2562   -8.1555 N   0  0  0  0  0  0  0  0  0  0  0  0
   -0.1711   19.1266   -9.3304 C   0  0  2  0  0  0  0  0  0  0  0  0
    0.0653   20.5876   -8.9864 C   0  0  0  0  0  0  0  0  0  0  0  0
   -1.4964   18.9835  -10.0872 C   0  0  0  0  0  0  0  0  0  0  0  0
   -2.5540   18.5973   -9.6069 O   0  0  0  0  0  0  0  0  0  0  0  0
   -1.4203   19.3144  -11.3900 O   0  0  0  0  0  0  0  0  0  0  0  0
    5.2706   27.6285   -6.0241 H   0  0  0  0  0  0  0  0  0  0  0  0
    3.8341   26.6639   -5.5609 H   0  0  0  0  0  0  0  0  0  0  0  0
    4.1877   26.9468   -7.2705 H   0  0  0  0  0  0  0  0  0  0  0  0
    5.3726   25.4760   -4.2940 H   0  0  0  0  0  0  0  0  0  0  0  0
    5.3719   23.1362   -5.6257 H   0  0  0  0  0  0  0  0  0  0  0  0
    7.1963   22.4606   -6.4719 H   0  0  0  0  0  0  0  0  0  0  0  0
    9.5402   24.6855   -8.5420 H   0  0  0  0  0  0  0  0  0  0  0  0
   12.3734   21.8240   -5.5479 H   0  0  0  0  0  0  0  0  0  0  0  0
    9.5495   18.4036   -5.6506 H   0  0  0  0  0  0  0  0  0  0  0  0
    8.4834   19.7322   -5.2186 H   0  0  0  0  0  0  0  0  0  0  0  0
    8.9220   17.5518   -3.6877 H   0  0  0  0  0  0  0  0  0  0  0  0
    9.6275   17.3639   -1.2739 H   0  0  0  0  0  0  0  0  0  0  0  0
   11.1294   20.5672   -0.2225 H   0  0  0  0  0  0  0  0  0  0  0  0
   13.1775   20.6796    1.1368 H   0  0  0  0  0  0  0  0  0  0  0  0
   13.5383   16.5252    0.6848 H   0  0  0  0  0  0  0  0  0  0  0  0
    9.3285   20.4114   -1.1751 H   0  0  0  0  0  0  0  0  0  0  0  0
    7.2637   18.7748   -0.5494 H   0  0  0  0  0  0  0  0  0  0  0  0
    7.8587   20.2225   -2.9756 H   0  0  0  0  0  0  0  0  0  0  0  0
    6.5835   18.3878   -3.2777 H   0  0  0  0  0  0  0  0  0  0  0  0
    8.6847   24.1019   -3.7678 H   0  0  0  0  0  0  0  0  0  0  0  0
   10.5757   22.7736   -3.6197 H   0  0  0  0  0  0  0  0  0  0  0  0
    9.7507   21.4093   -2.9598 H   0  0  0  0  0  0  0  0  0  0  0  0
   10.9605   22.6739   -1.4679 H   0  0  0  0  0  0  0  0  0  0  0  0
    7.1840   22.1880   -1.9806 H   0  0  0  0  0  0  0  0  0  0  0  0
    8.0718   24.1950   -1.3250 H   0  0  0  0  0  0  0  0  0  0  0  0
    5.1269   23.6634   -3.0095 H   0  0  0  0  0  0  0  0  0  0  0  0
    3.8499   22.2689   -4.8877 H   0  0  0  0  0  0  0  0  0  0  0  0
    2.8398   19.9261   -4.8858 H   0  0  0  0  0  0  0  0  0  0  0  0
    4.3357   19.4095   -4.0656 H   0  0  0  0  0  0  0  0  0  0  0  0
    4.4326   20.1624   -5.6331 H   0  0  0  0  0  0  0  0  0  0  0  0
    1.7525   21.4595   -1.4747 H   0  0  0  0  0  0  0  0  0  0  0  0
    3.5868   19.3766   -2.1156 H   0  0  0  0  0  0  0  0  0  0  0  0
    4.9341   20.3691    0.1830 H   0  0  0  0  0  0  0  0  0  0  0  0
    4.6776   21.8162   -0.7933 H   0  0  0  0  0  0  0  0  0  0  0  0
    5.5251   20.4204   -1.4672 H   0  0  0  0  0  0  0  0  0  0  0  0
    2.4808   17.8882    1.0086 H   0  0  0  0  0  0  0  0  0  0  0  0
    4.8092   18.0524   -0.8738 H   0  0  0  0  0  0  0  0  0  0  0  0
    4.3983   16.0463    1.3895 H   0  0  0  0  0  0  0  0  0  0  0  0
    5.8393   16.2807    0.4197 H   0  0  0  0  0  0  0  0  0  0  0  0
    6.0130   18.6652    1.3693 H   0  0  0  0  0  0  0  0  0  0  0  0
    4.6608   18.3047    2.4178 H   0  0  0  0  0  0  0  0  0  0  0  0
    6.5647   16.5019    4.5435 H   0  0  0  0  0  0  0  0  0  0  0  0
    1.8824   17.5405   -1.4621 H   0  0  0  0  0  0  0  0  0  0  0  0
    1.9693   14.8335   -2.5861 H   0  0  0  0  0  0  0  0  0  0  0  0
   -0.4852   15.2719   -2.9411 H   0  0  0  0  0  0  0  0  0  0  0  0
   -0.2604   16.8832   -2.2486 H   0  0  0  0  0  0  0  0  0  0  0  0
    0.6960   15.6541   -0.1601 H   0  0  0  0  0  0  0  0  0  0  0  0
   -0.0121   14.1952   -0.8367 H   0  0  0  0  0  0  0  0  0  0  0  0
   -1.5515   16.7990   -0.2789 H   0  0  0  0  0  0  0  0  0  0  0  0
   -1.3590   15.5154    0.8855 H   0  0  0  0  0  0  0  0  0  0  0  0
   -3.5505   15.3410   -0.1142 H   0  0  0  0  0  0  0  0  0  0  0  0
   -2.5819   13.9136   -0.4866 H   0  0  0  0  0  0  0  0  0  0  0  0
   -3.5424   14.3251   -2.4752 H   0  0  0  0  0  0  0  0  0  0  0  0
   -4.8531   15.8092   -4.0169 H   0  0  0  0  0  0  0  0  0  0  0  0
   -1.9708   15.6035   -5.0410 H   0  0  0  0  0  0  0  0  0  0  0  0
   -3.3824   15.3181   -6.0782 H   0  0  0  0  0  0  0  0  0  0  0  0
   -3.0423   14.2578   -4.7056 H   0  0  0  0  0  0  0  0  0  0  0  0
   -4.7062   17.5653   -5.4077 H   0  0  0  0  0  0  0  0  0  0  0  0
   -4.1162   18.2193   -4.0332 H   0  0  0  0  0  0  0  0  0  0  0  0
    0.1220   17.4708   -4.1927 H   0  0  0  0  0  0  0  0  0  0  0  0
   -0.7865   17.0957   -6.1036 H   0  0  0  0  0  0  0  0  0  0  0  0
    1.2103   14.9236   -6.5718 H   0  0  0  0  0  0  0  0  0  0  0  0
    0.4998   15.6469   -8.0075 H   0  0  0  0  0  0  0  0  0  0  0  0
   -0.5339   14.9672   -6.7567 H   0  0  0  0  0  0  0  0  0  0  0  0
   -1.1651   17.7884   -8.0473 H   0  0  0  0  0  0  0  0  0  0  0  0
    0.6311   18.7312   -9.9627 H   0  0  0  0  0  0  0  0  0  0  0  0
   -0.2448   21.2498   -9.8026 H   0  0  0  0  0  0  0  0  0  0  0  0
   -0.4877   20.8832   -8.0886 H   0  0  0  0  0  0  0  0  0  0  0  0
    1.1283   20.7689   -8.7993 H   0  0  0  0  0  0  0  0  0  0  0  0
   -2.3265   19.1677  -11.7365 H   0  0  0  0  0  0  0  0  0  0  0  0
  1  2  1  0  0  0  0
  1 83  1  0  0  0  0
  1 84  1  0  0  0  0
  1 85  1  0  0  0  0
  2  3  2  0  0  0  0
  2  4  1  0  0  0  0
  4  5  1  0  0  0  0
  4 86  1  0  0  0  0
  5  6  1  0  0  0  0
  5 38  1  0  0  0  0
  5 87  1  6  0  0  0
  6  7  1  0  0  0  0
  6 32  1  0  0  0  0
  6 88  1  0  0  0  0
  7  8  1  0  0  0  0
  8  9  2  0  0  0  0
  8 10  1  0  0  0  0
  8 11  1  0  0  0  0
 10 89  1  0  0  0  0
 11 12  1  0  0  0  0
 12 13  2  0  0  0  0
 12 14  1  0  0  0  0
 12 15  1  0  0  0  0
 14 90  1  0  0  0  0
 15 16  1  0  0  0  0
 16 17  1  0  0  0  0
 16 91  1  0  0  0  0
 16 92  1  0  0  0  0
 17 18  1  0  0  0  0
 17 30  1  0  0  0  0
 17 93  1  6  0  0  0
 18 19  1  0  0  0  0
 19 20  1  0  0  0  0
 19 28  1  0  0  0  0
 19 94  1  1  0  0  0
 20 21  1  0  0  0  0
 20 26  1  0  0  0  0
 21 22  2  0  0  0  0
 21 95  1  0  0  0  0
 22 23  1  0  0  0  0
 22 96  1  0  0  0  0
 23 24  2  0  0  0  0
 23 25  1  0  0  0  0
 25 26  1  0  0  0  0
 25 97  1  0  0  0  0
 26 27  2  0  0  0  0
 28 29  1  0  0  0  0
 28 30  1  0  0  0  0
 28 98  1  1  0  0  0
 29 99  1  0  0  0  0
 30 31  1  0  0  0  0
 30100  1  6  0  0  0
 31101  1  0  0  0  0
 32 33  1  0  0  0  0
 33 34  1  0  0  0  0
 33 36  1  0  0  0  0
 33102  1  6  0  0  0
 34 35  1  0  0  0  0
 34103  1  0  0  0  0
 34104  1  0  0  0  0
 35105  1  0  0  0  0
 36 37  1  0  0  0  0
 36 38  1  0  0  0  0
 36106  1  1  0  0  0
 37107  1  0  0  0  0
 38 39  1  0  0  0  0
 38108  1  1  0  0  0
 39 40  1  0  0  0  0
 40 41  1  0  0  0  0
 40 42  1  0  0  0  0
 40109  1  0  0  0  0
 41110  1  0  0  0  0
 41111  1  0  0  0  0
 41112  1  0  0  0  0
 42 43  2  0  0  0  0
 42 44  1  0  0  0  0
 44 45  1  0  0  0  0
 44113  1  0  0  0  0
 45 46  1  0  0  0  0
 45 47  1  0  0  0  0
 45114  1  6  0  0  0
 46115  1  0  0  0  0
 46116  1  0  0  0  0
 46117  1  0  0  0  0
 47 48  2  0  0  0  0
 47 49  1  0  0  0  0
 49118  1  0  0  0  0
 50 56  1  0  0  0  0
 50 51  1  0  0  0  0
 50 49  1  0  0  0  0
 50119  1  1  0  0  0
 51 52  1  0  0  0  0
 51120  1  0  0  0  0
 51121  1  0  0  0  0
 52 53  1  0  0  0  0
 52122  1  0  0  0  0
 52123  1  0  0  0  0
 53 54  2  0  0  0  0
 53 55  1  0  0  0  0
 55124  1  0  0  0  0
 56 57  2  0  0  0  0
 56 58  1  0  0  0  0
 58 59  1  0  0  0  0
 58125  1  0  0  0  0
 59 60  1  0  0  0  0
 59 70  1  0  0  0  0
 59126  1  1  0  0  0
 60 61  1  0  0  0  0
 60127  1  0  0  0  0
 60128  1  0  0  0  0
 61 62  1  0  0  0  0
 61129  1  0  0  0  0
 61130  1  0  0  0  0
 62 63  1  0  0  0  0
 62131  1  0  0  0  0
 62132  1  0  0  0  0
 63 64  1  0  0  0  0
 63133  1  0  0  0  0
 63134  1  0  0  0  0
 64 65  1  0  0  0  0
 64135  1  0  0  0  0
 65 66  2  0  0  0  0
 67 69  1  0  0  0  0
 67 68  1  0  0  0  0
 67 65  1  0  0  0  0
 67136  1  1  0  0  0
 68137  1  0  0  0  0
 68138  1  0  0  0  0
 68139  1  0  0  0  0
 69140  1  0  0  0  0
 69141  1  0  0  0  0
 70 71  2  0  0  0  0
 70 72  1  0  0  0  0
 72142  1  0  0  0  0
 73 75  1  0  0  0  0
 73 74  1  0  0  0  0
 73 72  1  0  0  0  0
 73143  1  1  0  0  0
 74144  1  0  0  0  0
 74145  1  0  0  0  0
 74146  1  0  0  0  0
 75 76  2  0  0  0  0
 75 77  1  0  0  0  0
 77147  1  0  0  0  0
 78 80  1  0  0  0  0
 78 79  1  0  0  0  0
 78 77  1  0  0  0  0
 78148  1  6  0  0  0
 79149  1  0  0  0  0
 79150  1  0  0  0  0
 79151  1  0  0  0  0
 80 81  2  0  0  0  0
 80 82  1  0  0  0  0
 82152  1  0  0  0  0
M  END
$$$$
