CHEBI:7061
 OpenBabel04242411093D

 54 55  0  0  1  0  0  0  0  0999 V2000
    0.8357    1.4064   -1.4169 N   0  0  0  0  0  0  0  0  0  0  0  0
    1.3997    0.1129   -1.0234 C   0  0  0  0  0  0  0  0  0  0  0  0
    2.6444    0.2294   -0.1021 C   0  0  2  0  0  0  0  0  0  0  0  0
    3.1497   -1.1718    0.2810 C   0  0  0  0  0  0  0  0  0  0  0  0
    4.3771   -1.1885    1.2044 C   0  0  0  0  0  0  0  0  0  0  0  0
    5.5867   -0.4485    0.6261 C   0  0  0  0  0  0  0  0  0  0  0  0
    6.8623   -0.6818    1.4304 C   0  0  0  0  0  0  0  0  0  0  0  0
    6.8013   -0.1493    2.7723 N   0  0  0  0  0  0  0  0  0  0  0  0
    7.8546   -0.2971    3.6454 C   0  0  0  0  0  0  0  0  0  0  0  0
    8.8858   -0.8899    3.3379 O   0  0  0  0  0  0  0  0  0  0  0  0
    7.7112    0.2940    5.0116 C   0  0  0  0  0  0  0  0  0  0  0  0
    8.8062    0.1534    5.8858 C   0  0  0  0  0  0  0  0  0  0  0  0
    8.7552    0.6416    7.1962 C   0  0  0  0  0  0  0  0  0  0  0  0
    7.6134    1.2959    7.6495 C   0  0  0  0  0  0  0  0  0  0  0  0
    6.5402    1.4585    6.7840 C   0  0  0  0  0  0  0  0  0  0  0  0
    5.4514    2.1633    7.2180 O   0  0  0  0  0  0  0  0  0  0  0  0
    6.5660    0.9448    5.4832 C   0  0  0  0  0  0  0  0  0  0  0  0
    5.4357    1.0797    4.7173 O   0  0  0  0  0  0  0  0  0  0  0  0
    2.3490    1.0064    1.0939 N   0  0  0  0  0  0  0  0  0  0  0  0
    2.7675    2.3019    1.2706 C   0  0  0  0  0  0  0  0  0  0  0  0
    3.4947    2.8880    0.4712 O   0  0  0  0  0  0  0  0  0  0  0  0
    2.2999    3.0021    2.5056 C   0  0  0  0  0  0  0  0  0  0  0  0
    2.5289    4.3871    2.5867 C   0  0  0  0  0  0  0  0  0  0  0  0
    2.1187    5.1239    3.7039 C   0  0  0  0  0  0  0  0  0  0  0  0
    1.4815    4.4875    4.7673 C   0  0  0  0  0  0  0  0  0  0  0  0
    1.2618    3.1172    4.6967 C   0  0  0  0  0  0  0  0  0  0  0  0
    0.6515    2.4365    5.7170 O   0  0  0  0  0  0  0  0  0  0  0  0
    1.6591    2.3748    3.5787 C   0  0  0  0  0  0  0  0  0  0  0  0
    1.3917    1.0277    3.5928 O   0  0  0  0  0  0  0  0  0  0  0  0
    0.2466    1.2918   -2.2387 H   0  0  0  0  0  0  0  0  0  0  0  0
    1.5941    2.0401   -1.6758 H   0  0  0  0  0  0  0  0  0  0  0  0
    1.6769   -0.4403   -1.9283 H   0  0  0  0  0  0  0  0  0  0  0  0
    0.6117   -0.4570   -0.5182 H   0  0  0  0  0  0  0  0  0  0  0  0
    3.4264    0.7440   -0.6732 H   0  0  0  0  0  0  0  0  0  0  0  0
    2.3448   -1.7259    0.7814 H   0  0  0  0  0  0  0  0  0  0  0  0
    3.3891   -1.7286   -0.6340 H   0  0  0  0  0  0  0  0  0  0  0  0
    4.6459   -2.2361    1.3879 H   0  0  0  0  0  0  0  0  0  0  0  0
    4.1100   -0.7627    2.1788 H   0  0  0  0  0  0  0  0  0  0  0  0
    5.3839    0.6271    0.5817 H   0  0  0  0  0  0  0  0  0  0  0  0
    5.7599   -0.7895   -0.4017 H   0  0  0  0  0  0  0  0  0  0  0  0
    7.7086   -0.2023    0.9251 H   0  0  0  0  0  0  0  0  0  0  0  0
    7.0880   -1.7525    1.4971 H   0  0  0  0  0  0  0  0  0  0  0  0
    6.0025    0.4065    3.0698 H   0  0  0  0  0  0  0  0  0  0  0  0
    9.7103   -0.3522    5.5473 H   0  0  0  0  0  0  0  0  0  0  0  0
    9.6109    0.5126    7.8548 H   0  0  0  0  0  0  0  0  0  0  0  0
    7.5709    1.6880    8.6615 H   0  0  0  0  0  0  0  0  0  0  0  0
    5.2867    2.8399    6.5343 H   0  0  0  0  0  0  0  0  0  0  0  0
    4.6835    1.1097    5.3407 H   0  0  0  0  0  0  0  0  0  0  0  0
    1.6918    0.6311    1.7727 H   0  0  0  0  0  0  0  0  0  0  0  0
    3.0246    4.9030    1.7648 H   0  0  0  0  0  0  0  0  0  0  0  0
    2.2967    6.1967    3.7343 H   0  0  0  0  0  0  0  0  0  0  0  0
    1.1663    5.0713    5.6264 H   0  0  0  0  0  0  0  0  0  0  0  0
    0.3975    3.0777    6.4050 H   0  0  0  0  0  0  0  0  0  0  0  0
    0.9193    0.8773    4.4391 H   0  0  0  0  0  0  0  0  0  0  0  0
  1  2  1  0  0  0  0
  1 30  1  0  0  0  0
  1 31  1  0  0  0  0
  2 32  1  0  0  0  0
  2 33  1  0  0  0  0
  3 19  1  0  0  0  0
  3  4  1  0  0  0  0
  3  2  1  0  0  0  0
  3 34  1  6  0  0  0
  4  5  1  0  0  0  0
  4 35  1  0  0  0  0
  4 36  1  0  0  0  0
  5  6  1  0  0  0  0
  5 37  1  0  0  0  0
  5 38  1  0  0  0  0
  6  7  1  0  0  0  0
  6 39  1  0  0  0  0
  6 40  1  0  0  0  0
  7  8  1  0  0  0  0
  7 41  1  0  0  0  0
  7 42  1  0  0  0  0
  8  9  1  0  0  0  0
  8 43  1  0  0  0  0
  9 10  2  0  0  0  0
  9 11  1  0  0  0  0
 11 12  1  0  0  0  0
 11 17  2  0  0  0  0
 12 13  2  0  0  0  0
 12 44  1  0  0  0  0
 13 14  1  0  0  0  0
 13 45  1  0  0  0  0
 14 15  2  0  0  0  0
 14 46  1  0  0  0  0
 15 16  1  0  0  0  0
 15 17  1  0  0  0  0
 16 47  1  0  0  0  0
 17 18  1  0  0  0  0
 18 48  1  0  0  0  0
 19 20  1  0  0  0  0
 19 49  1  0  0  0  0
 20 21  2  0  0  0  0
 20 22  1  0  0  0  0
 22 23  1  0  0  0  0
 22 28  2  0  0  0  0
 23 24  2  0  0  0  0
 23 50  1  0  0  0  0
 24 25  1  0  0  0  0
 24 51  1  0  0  0  0
 25 26  2  0  0  0  0
 25 52  1  0  0  0  0
 26 27  1  0  0  0  0
 26 28  1  0  0  0  0
 27 53  1  0  0  0  0
 28 29  1  0  0  0  0
 29 54  1  0  0  0  0
M  END
$$$$
