CHEBI:16789
 OpenBabel04242415153D

 20 19  0  0  1  0  0  0  0  0999 V2000
    2.8403   -4.3605    3.3496 O   0  0  0  0  0  0  0  0  0  0  0  0
    3.9994   -3.9667    3.2278 C   0  0  0  0  0  0  0  0  0  0  0  0
    4.8679   -4.3745    2.0517 C   0  0  1  0  0  0  0  0  0  0  0  0
    4.2238   -5.4259    1.3046 O   0  0  0  0  0  0  0  0  0  0  0  0
    5.0845   -3.2107    1.0806 C   0  0  1  0  0  0  0  0  0  0  0  0
    5.8836   -3.6734   -0.0345 O   0  0  0  0  0  0  0  0  0  0  0  0
    5.7512   -1.9439    1.6468 C   0  0  2  0  0  0  0  0  0  0  0  0
    5.9126   -1.0099    0.5681 O   0  0  0  0  0  0  0  0  0  0  0  0
    7.1215   -2.1793    2.2878 C   0  0  0  0  0  0  0  0  0  0  0  0
    6.9950   -2.9252    3.4937 O   0  0  0  0  0  0  0  0  0  0  0  0
    4.4613   -3.3025    3.9764 H   0  0  0  0  0  0  0  0  0  0  0  0
    5.8059   -4.8006    2.4147 H   0  0  0  0  0  0  0  0  0  0  0  0
    3.3118   -5.4922    1.6616 H   0  0  0  0  0  0  0  0  0  0  0  0
    4.1236   -2.9246    0.6332 H   0  0  0  0  0  0  0  0  0  0  0  0
    5.5142   -4.5550   -0.2567 H   0  0  0  0  0  0  0  0  0  0  0  0
    5.0837   -1.4820    2.3825 H   0  0  0  0  0  0  0  0  0  0  0  0
    6.1908   -1.5507   -0.2009 H   0  0  0  0  0  0  0  0  0  0  0  0
    7.5895   -1.2173    2.5256 H   0  0  0  0  0  0  0  0  0  0  0  0
    7.7954   -2.7082    1.6055 H   0  0  0  0  0  0  0  0  0  0  0  0
    7.8923   -2.9829    3.8728 H   0  0  0  0  0  0  0  0  0  0  0  0
  1  2  2  0  0  0  0
  2  3  1  0  0  0  0
  2 11  1  0  0  0  0
  3  4  1  0  0  0  0
  3  5  1  0  0  0  0
  3 12  1  1  0  0  0
  4 13  1  0  0  0  0
  5  6  1  0  0  0  0
  5 14  1  1  0  0  0
  6 15  1  0  0  0  0
  7  9  1  0  0  0  0
  7  8  1  0  0  0  0
  7  5  1  0  0  0  0
  7 16  1  1  0  0  0
  8 17  1  0  0  0  0
  9 10  1  0  0  0  0
  9 18  1  0  0  0  0
  9 19  1  0  0  0  0
 10 20  1  0  0  0  0
M  END
$$$$
