CHEBI:27401
 OpenBabel04252409473D

 16 15  0  0  0  0  0  0  0  0999 V2000
    1.6664    0.6503    0.6050 C   0  0  0  0  0  0  0  0  0  0  0  0
    2.8128    0.9298   -0.3499 C   0  0  0  0  0  0  0  0  0  0  0  0
    3.5414   -0.3332   -0.7745 C   0  0  0  0  0  0  0  0  0  0  0  0
    3.2374   -1.4499   -0.3495 O   0  0  0  0  0  0  0  0  0  0  0  0
    4.6681   -0.1522   -1.7561 C   0  0  0  0  0  0  0  0  0  0  0  0
    5.4715   -1.3654   -2.1327 C   0  0  0  0  0  0  0  0  0  0  0  0
    6.4243   -1.2843   -2.9002 O   0  0  0  0  0  0  0  0  0  0  0  0
    5.1036   -2.5460   -1.6000 O   0  0  0  0  0  0  0  0  0  0  0  0
    1.1844    1.5855    0.9061 H   0  0  0  0  0  0  0  0  0  0  0  0
    2.0198    0.1413    1.5078 H   0  0  0  0  0  0  0  0  0  0  0  0
    0.9111    0.0122    0.1344 H   0  0  0  0  0  0  0  0  0  0  0  0
    3.5371    1.5945    0.1323 H   0  0  0  0  0  0  0  0  0  0  0  0
    2.4280    1.4229   -1.2487 H   0  0  0  0  0  0  0  0  0  0  0  0
    5.3648    0.5735   -1.3228 H   0  0  0  0  0  0  0  0  0  0  0  0
    4.2365    0.2532   -2.6774 H   0  0  0  0  0  0  0  0  0  0  0  0
    4.3197   -2.4942   -0.9991 H   0  0  0  0  0  0  0  0  0  0  0  0
  1  2  1  0  0  0  0
  1  9  1  0  0  0  0
  1 10  1  0  0  0  0
  1 11  1  0  0  0  0
  2  3  1  0  0  0  0
  2 12  1  0  0  0  0
  2 13  1  0  0  0  0
  3  4  2  0  0  0  0
  3  5  1  0  0  0  0
  5  6  1  0  0  0  0
  5 14  1  0  0  0  0
  5 15  1  0  0  0  0
  6  7  2  0  0  0  0
  6  8  1  0  0  0  0
  8 16  1  0  0  0  0
M  END
$$$$
