CHEBI:18429
 OpenBabel04252409363D

 34 34  0  0  0  0  0  0  0  0999 V2000
    2.7066   -1.9142    3.0453 C   0  0  0  0  0  0  0  0  0  0  0  0
    3.9045   -2.5300    2.3748 C   0  0  0  0  0  0  0  0  0  0  0  0
    4.6935   -3.2472    2.9836 O   0  0  0  0  0  0  0  0  0  0  0  0
    4.0632   -2.2534    0.9204 C   0  0  0  0  0  0  0  0  0  0  0  0
    5.0070   -2.8855    0.2023 C   0  0  0  0  0  0  0  0  0  0  0  0
    5.2564   -2.7224   -1.2858 C   0  0  0  0  0  0  0  0  0  0  0  0
    4.4059   -1.6763   -1.7606 O   0  0  0  0  0  0  0  0  0  0  0  0
    6.7093   -2.2977   -1.4858 C   0  0  0  0  0  0  0  0  0  0  0  0
    7.0649   -0.8587   -1.2086 C   0  0  0  0  0  0  0  0  0  0  0  0
    7.6721   -3.1675   -1.8435 C   0  0  0  0  0  0  0  0  0  0  0  0
    7.3883   -4.6088   -2.0495 C   0  0  0  0  0  0  0  0  0  0  0  0
    8.3096   -5.3613   -2.3561 O   0  0  0  0  0  0  0  0  0  0  0  0
    5.9829   -5.1155   -1.8139 C   0  0  0  0  0  0  0  0  0  0  0  0
    4.9189   -4.0340   -2.0971 C   0  0  0  0  0  0  0  0  0  0  0  0
    4.8717   -3.7664   -3.6277 C   0  0  0  0  0  0  0  0  0  0  0  0
    3.5280   -4.5980   -1.7202 C   0  0  0  0  0  0  0  0  0  0  0  0
    2.7761   -2.0654    4.1265 H   0  0  0  0  0  0  0  0  0  0  0  0
    1.7945   -2.3923    2.6786 H   0  0  0  0  0  0  0  0  0  0  0  0
    2.6763   -0.8390    2.8501 H   0  0  0  0  0  0  0  0  0  0  0  0
    3.3728   -1.5497    0.4702 H   0  0  0  0  0  0  0  0  0  0  0  0
    5.6592   -3.5898    0.7193 H   0  0  0  0  0  0  0  0  0  0  0  0
    4.7462   -1.3888   -2.6240 H   0  0  0  0  0  0  0  0  0  0  0  0
    6.5857   -0.1947   -1.9347 H   0  0  0  0  0  0  0  0  0  0  0  0
    8.1448   -0.6847   -1.2718 H   0  0  0  0  0  0  0  0  0  0  0  0
    6.7471   -0.5663   -0.2031 H   0  0  0  0  0  0  0  0  0  0  0  0
    8.7099   -2.8779   -1.9706 H   0  0  0  0  0  0  0  0  0  0  0  0
    5.9285   -5.4722   -0.7789 H   0  0  0  0  0  0  0  0  0  0  0  0
    5.8219   -5.9819   -2.4674 H   0  0  0  0  0  0  0  0  0  0  0  0
    5.7898   -3.3028   -4.0010 H   0  0  0  0  0  0  0  0  0  0  0  0
    4.0372   -3.1078   -3.8935 H   0  0  0  0  0  0  0  0  0  0  0  0
    4.7296   -4.7006   -4.1839 H   0  0  0  0  0  0  0  0  0  0  0  0
    3.4908   -4.9360   -0.6792 H   0  0  0  0  0  0  0  0  0  0  0  0
    3.2738   -5.4637   -2.3432 H   0  0  0  0  0  0  0  0  0  0  0  0
    2.7423   -3.8476   -1.8612 H   0  0  0  0  0  0  0  0  0  0  0  0
  1  2  1  0  0  0  0
  1 17  1  0  0  0  0
  1 18  1  0  0  0  0
  1 19  1  0  0  0  0
  2  3  2  0  0  0  0
  2  4  1  0  0  0  0
  4  5  2  0  0  0  0
  4 20  1  0  0  0  0
  5  6  1  0  0  0  0
  5 21  1  0  0  0  0
  6  7  1  0  0  0  0
  6  8  1  0  0  0  0
  6 14  1  0  0  0  0
  7 22  1  0  0  0  0
  8  9  1  0  0  0  0
  8 10  2  0  0  0  0
  9 23  1  0  0  0  0
  9 24  1  0  0  0  0
  9 25  1  0  0  0  0
 10 11  1  0  0  0  0
 10 26  1  0  0  0  0
 11 12  2  0  0  0  0
 11 13  1  0  0  0  0
 13 14  1  0  0  0  0
 13 27  1  0  0  0  0
 13 28  1  0  0  0  0
 14 15  1  0  0  0  0
 14 16  1  0  0  0  0
 15 29  1  0  0  0  0
 15 30  1  0  0  0  0
 15 31  1  0  0  0  0
 16 32  1  0  0  0  0
 16 33  1  0  0  0  0
 16 34  1  0  0  0  0
M  END
$$$$
