CHEBI:27379
 OpenBabel04252409433D

158164  0  0  1  0  0  0  0  0999 V2000
   22.9101   12.3184   29.2830 C   0  0  0  0  0  0  0  0  0  0  0  0
   22.5540   11.9908   27.8391 C   0  0  0  0  0  0  0  0  0  0  0  0
   22.0254   10.5733   27.7244 C   0  0  0  0  0  0  0  0  0  0  0  0
   20.8291   10.3022   27.6545 O   0  0  0  0  0  0  0  0  0  0  0  0
   23.0667    9.4748   27.6519 C   0  0  0  0  0  0  0  0  0  0  0  0
   22.7366    8.2280   28.4783 C   0  0  0  0  0  0  0  0  0  0  0  0
   22.9205    8.2852   30.0325 C   0  0  1  0  0  0  0  0  0  0  0  0
   24.2380    8.9955   30.3659 C   0  0  0  0  0  0  0  0  0  0  0  0
   21.6188    8.7514   30.8193 C   0  0  1  0  0  0  0  0  0  0  0  0
   20.5165    7.6717   30.5828 C   0  0  0  0  0  0  0  0  0  0  0  0
   20.4614    6.8495   31.8673 C   0  0  0  0  0  0  0  0  0  0  0  0
   20.4775    7.9537   32.8967 C   0  0  1  0  0  0  0  0  0  0  0  0
   20.6296    7.6060   34.3714 C   0  0  2  0  0  0  0  0  0  0  0  0
   19.6800    6.5330   34.9097 C   0  0  2  0  0  0  0  0  0  0  0  0
   18.3331    6.9808   34.9489 O   0  0  0  0  0  0  0  0  0  0  0  0
   20.1481    6.1395   36.3151 C   0  0  0  0  0  0  0  0  0  0  0  0
   20.3147    7.3154   37.3103 C   0  0  2  0  0  0  0  0  0  0  0  0
   18.9743    7.5922   38.0096 C   0  0  0  0  0  0  0  0  0  0  0  0
   19.0968    8.7211   39.0197 C   0  0  2  0  0  0  0  0  0  0  0  0
   17.8639    8.9105   39.7011 O   0  0  0  0  0  0  0  0  0  0  0  0
   19.4935    9.9957   38.2942 C   0  0  0  0  0  0  0  0  0  0  0  0
   20.8664    9.8319   37.6587 C   0  0  0  0  0  0  0  0  0  0  0  0
   21.0337    8.5957   36.7173 C   0  0  1  0  0  0  0  0  0  0  0  0
   22.5638    8.2942   36.7210 C   0  0  0  0  0  0  0  0  0  0  0  0
   20.5268    8.9044   35.2399 C   0  0  1  0  0  0  0  0  0  0  0  0
   21.1518   10.1957   34.5779 C   0  0  0  0  0  0  0  0  0  0  0  0
   21.2422   10.2659   33.0197 C   0  0  2  0  0  0  0  0  0  0  0  0
   19.9995   10.7111   32.4766 O   0  0  0  0  0  0  0  0  0  0  0  0
   21.6379    8.8917   32.4172 C   0  0  2  0  0  0  0  0  0  0  0  0
   23.0207    8.5236   32.9971 C   0  0  0  0  0  0  0  0  0  0  0  0
   21.7048   13.0756   27.2187 C   0  0  0  0  0  0  0  0  0  0  0  0
   22.1743   13.8780   26.4161 O   0  0  0  0  0  0  0  0  0  0  0  0
   20.0598   13.2947   27.7944 S   0  0  0  0  0  0  0  0  0  0  0  0
   20.3833   14.6323   28.9774 C   0  0  0  0  0  0  0  0  0  0  0  0
   19.1268   14.9755   29.7594 C   0  0  0  0  0  0  0  0  0  0  0  0
   18.1250   15.6411   28.9600 N   0  0  0  0  0  0  0  0  0  0  0  0
   16.9079   15.9491   29.5113 C   0  0  0  0  0  0  0  0  0  0  0  0
   16.5728   15.5944   30.6392 O   0  0  0  0  0  0  0  0  0  0  0  0
   16.0172   16.7423   28.5949 C   0  0  0  0  0  0  0  0  0  0  0  0
   15.0805   17.6345   29.3983 C   0  0  0  0  0  0  0  0  0  0  0  0
   15.7244   18.9071   29.7200 N   0  0  0  0  0  0  0  0  0  0  0  0
   15.7276   20.0457   28.9538 C   0  0  0  0  0  0  0  0  0  0  0  0
   16.7549   20.7219   28.9103 O   0  0  0  0  0  0  0  0  0  0  0  0
   14.4042   20.4970   28.2820 C   0  0  2  0  0  0  0  0  0  0  0  0
   13.2974   19.7731   28.8260 O   0  0  0  0  0  0  0  0  0  0  0  0
   14.3585   20.4598   26.7345 C   0  0  0  0  0  0  0  0  0  0  0  0
   15.2719   21.5690   26.1675 C   0  0  0  0  0  0  0  0  0  0  0  0
   14.8535   19.1111   26.1885 C   0  0  0  0  0  0  0  0  0  0  0  0
   12.8938   20.6952   26.2468 C   0  0  0  0  0  0  0  0  0  0  0  0
   12.5130   22.0419   26.4611 O   0  0  0  0  0  0  0  0  0  0  0  0
   11.3492   22.5308   27.4519 P   0  0  0  0  0  0  0  0  0  0  0  0
   11.4797   23.9731   27.8270 O   0  0  0  0  0  0  0  0  0  0  0  0
   10.0024   22.2111   26.6561 O   0  0  0  0  0  0  0  0  0  0  0  0
   11.3751   21.5576   28.7003 O   0  0  0  0  0  0  0  0  0  0  0  0
   10.2475   20.5918   29.2377 P   0  0  0  0  0  0  0  0  0  0  0  0
    9.2800   20.1215   28.2018 O   0  0  0  0  0  0  0  0  0  0  0  0
   11.1053   19.3900   29.8600 O   0  0  0  0  0  0  0  0  0  0  0  0
    9.6725   21.3145   30.5543 O   0  0  0  0  0  0  0  0  0  0  0  0
    9.0056   20.4997   31.5130 C   0  0  0  0  0  0  0  0  0  0  0  0
    9.7143   20.5115   32.8820 C   0  0  1  0  0  0  0  0  0  0  0  0
   11.1118   20.1180   32.7214 O   0  0  0  0  0  0  0  0  0  0  0  0
   11.9147   21.1882   33.2547 C   0  0  1  0  0  0  0  0  0  0  0  0
   13.2094   21.2364   32.6024 N   0  0  0  0  0  0  0  0  0  0  0  0
   14.3162   20.5328   33.0136 C   0  0  0  0  0  0  0  0  0  0  0  0
   15.4261   21.0025   32.4802 N   0  0  0  0  0  0  0  0  0  0  0  0
   15.0245   22.0650   31.6973 C   0  0  0  0  0  0  0  0  0  0  0  0
   15.7191   23.0184   30.9307 C   0  0  0  0  0  0  0  0  0  0  0  0
   17.1063   23.0749   30.8239 N   0  0  0  0  0  0  0  0  0  0  0  0
   15.0079   23.9195   30.2150 N   0  0  0  0  0  0  0  0  0  0  0  0
   13.6656   23.8879   30.2843 C   0  0  0  0  0  0  0  0  0  0  0  0
   12.9051   23.0524   31.0109 N   0  0  0  0  0  0  0  0  0  0  0  0
   13.6442   22.1707   31.7001 C   0  0  0  0  0  0  0  0  0  0  0  0
   11.0498   22.4440   33.1343 C   0  0  2  0  0  0  0  0  0  0  0  0
   11.5244   23.5493   33.9022 O   0  0  0  0  0  0  0  0  0  0  0  0
    9.7065   21.8895   33.5695 C   0  0  2  0  0  0  0  0  0  0  0  0
    9.6540   21.7040   34.9859 O   0  0  0  0  0  0  0  0  0  0  0  0
    9.5481   23.0187   35.9012 P   0  0  0  0  0  0  0  0  0  0  0  0
    8.8387   24.1931   35.3249 O   0  0  0  0  0  0  0  0  0  0  0  0
    8.9147   22.4819   37.2625 O   0  0  0  0  0  0  0  0  0  0  0  0
   11.0577   23.2857   36.3455 O   0  0  0  0  0  0  0  0  0  0  0  0
   22.1030   12.0445   29.9719 H   0  0  0  0  0  0  0  0  0  0  0  0
   23.1333   13.3816   29.4143 H   0  0  0  0  0  0  0  0  0  0  0  0
   23.8057   11.7751   29.5876 H   0  0  0  0  0  0  0  0  0  0  0  0
   23.4855   12.0123   27.2548 H   0  0  0  0  0  0  0  0  0  0  0  0
   24.0493    9.8815   27.8999 H   0  0  0  0  0  0  0  0  0  0  0  0
   23.1262    9.1898   26.5934 H   0  0  0  0  0  0  0  0  0  0  0  0
   23.4173    7.4410   28.1219 H   0  0  0  0  0  0  0  0  0  0  0  0
   21.7355    7.8817   28.2085 H   0  0  0  0  0  0  0  0  0  0  0  0
   23.0738    7.2358   30.3264 H   0  0  0  0  0  0  0  0  0  0  0  0
   24.0751   10.0260   30.6806 H   0  0  0  0  0  0  0  0  0  0  0  0
   24.9475    8.9866   29.5336 H   0  0  0  0  0  0  0  0  0  0  0  0
   24.7795    8.4700   31.1577 H   0  0  0  0  0  0  0  0  0  0  0  0
   21.2900    9.6996   30.3801 H   0  0  0  0  0  0  0  0  0  0  0  0
   20.6864    7.0109   29.7309 H   0  0  0  0  0  0  0  0  0  0  0  0
   19.5541    8.1725   30.4137 H   0  0  0  0  0  0  0  0  0  0  0  0
   21.3304    6.1894   31.9580 H   0  0  0  0  0  0  0  0  0  0  0  0
   19.5522    6.2429   31.9109 H   0  0  0  0  0  0  0  0  0  0  0  0
   19.5040    8.4560   32.7908 H   0  0  0  0  0  0  0  0  0  0  0  0
   21.6151    7.1490   34.4748 H   0  0  0  0  0  0  0  0  0  0  0  0
   19.7076    5.6390   34.2773 H   0  0  0  0  0  0  0  0  0  0  0  0
   18.0674    7.2061   34.0403 H   0  0  0  0  0  0  0  0  0  0  0  0
   21.1178    5.6324   36.2221 H   0  0  0  0  0  0  0  0  0  0  0  0
   19.4565    5.3980   36.7340 H   0  0  0  0  0  0  0  0  0  0  0  0
   20.9641    6.9297   38.1115 H   0  0  0  0  0  0  0  0  0  0  0  0
   18.6320    6.6872   38.5294 H   0  0  0  0  0  0  0  0  0  0  0  0
   18.1866    7.8308   37.2874 H   0  0  0  0  0  0  0  0  0  0  0  0
   19.8469    8.4678   39.7792 H   0  0  0  0  0  0  0  0  0  0  0  0
   17.1681    9.0269   39.0326 H   0  0  0  0  0  0  0  0  0  0  0  0
   19.5092   10.8321   39.0037 H   0  0  0  0  0  0  0  0  0  0  0  0
   18.7428   10.2576   37.5391 H   0  0  0  0  0  0  0  0  0  0  0  0
   21.5861    9.7530   38.4858 H   0  0  0  0  0  0  0  0  0  0  0  0
   21.1323   10.7604   37.1430 H   0  0  0  0  0  0  0  0  0  0  0  0
   22.9174    8.0866   37.7384 H   0  0  0  0  0  0  0  0  0  0  0  0
   23.1517    9.1434   36.3611 H   0  0  0  0  0  0  0  0  0  0  0  0
   22.8285    7.4172   36.1266 H   0  0  0  0  0  0  0  0  0  0  0  0
   19.4569    9.1470   35.3231 H   0  0  0  0  0  0  0  0  0  0  0  0
   22.1632   10.3530   34.9613 H   0  0  0  0  0  0  0  0  0  0  0  0
   20.5693   11.0585   34.9289 H   0  0  0  0  0  0  0  0  0  0  0  0
   21.9817   11.0249   32.7385 H   0  0  0  0  0  0  0  0  0  0  0  0
   19.7208   11.5101   32.9558 H   0  0  0  0  0  0  0  0  0  0  0  0
   23.3672    7.5486   32.6454 H   0  0  0  0  0  0  0  0  0  0  0  0
   23.0571    8.4811   34.0827 H   0  0  0  0  0  0  0  0  0  0  0  0
   23.7510    9.3032   32.7688 H   0  0  0  0  0  0  0  0  0  0  0  0
   20.7607   15.5083   28.4395 H   0  0  0  0  0  0  0  0  0  0  0  0
   21.1451   14.3136   29.6900 H   0  0  0  0  0  0  0  0  0  0  0  0
   19.3849   15.6606   30.5753 H   0  0  0  0  0  0  0  0  0  0  0  0
   18.6806   14.0849   30.2193 H   0  0  0  0  0  0  0  0  0  0  0  0
   18.3749   15.9968   28.0439 H   0  0  0  0  0  0  0  0  0  0  0  0
   15.4388   16.0238   28.0040 H   0  0  0  0  0  0  0  0  0  0  0  0
   16.6271   17.3368   27.9060 H   0  0  0  0  0  0  0  0  0  0  0  0
   14.7660   17.1864   30.3455 H   0  0  0  0  0  0  0  0  0  0  0  0
   14.1868   17.7861   28.7979 H   0  0  0  0  0  0  0  0  0  0  0  0
   16.5712   18.8267   30.2746 H   0  0  0  0  0  0  0  0  0  0  0  0
   14.2515   21.5336   28.6016 H   0  0  0  0  0  0  0  0  0  0  0  0
   13.3525   19.9528   29.7917 H   0  0  0  0  0  0  0  0  0  0  0  0
   16.3152   21.4295   26.4669 H   0  0  0  0  0  0  0  0  0  0  0  0
   14.9643   22.5622   26.5138 H   0  0  0  0  0  0  0  0  0  0  0  0
   15.2440   21.5761   25.0722 H   0  0  0  0  0  0  0  0  0  0  0  0
   15.8979   18.9345   26.4668 H   0  0  0  0  0  0  0  0  0  0  0  0
   14.8163   19.0893   25.0937 H   0  0  0  0  0  0  0  0  0  0  0  0
   14.2493   18.2769   26.5548 H   0  0  0  0  0  0  0  0  0  0  0  0
   12.1800   20.0035   26.7077 H   0  0  0  0  0  0  0  0  0  0  0  0
   12.8359   20.5121   25.1669 H   0  0  0  0  0  0  0  0  0  0  0  0
    9.7518   21.2711   26.5589 H   0  0  0  0  0  0  0  0  0  0  0  0
   11.6991   19.0003   29.1839 H   0  0  0  0  0  0  0  0  0  0  0  0
    8.9383   19.4693   31.1471 H   0  0  0  0  0  0  0  0  0  0  0  0
    7.9827   20.8752   31.6171 H   0  0  0  0  0  0  0  0  0  0  0  0
    9.2406   19.7608   33.5256 H   0  0  0  0  0  0  0  0  0  0  0  0
   12.1187   20.9651   34.3116 H   0  0  0  0  0  0  0  0  0  0  0  0
   14.2596   19.7210   33.7302 H   0  0  0  0  0  0  0  0  0  0  0  0
   17.5082   22.1417   30.8599 H   0  0  0  0  0  0  0  0  0  0  0  0
   17.3499   23.5933   29.9870 H   0  0  0  0  0  0  0  0  0  0  0  0
   13.1352   24.6215   29.6832 H   0  0  0  0  0  0  0  0  0  0  0  0
   10.9196   22.7741   32.1024 H   0  0  0  0  0  0  0  0  0  0  0  0
   11.8894   24.1806   33.2438 H   0  0  0  0  0  0  0  0  0  0  0  0
    8.8585   22.5117   33.2700 H   0  0  0  0  0  0  0  0  0  0  0  0
    8.7680   23.2216   37.8783 H   0  0  0  0  0  0  0  0  0  0  0  0
   11.5414   23.6332   35.5609 H   0  0  0  0  0  0  0  0  0  0  0  0
  1  2  1  0  0  0  0
  1 81  1  0  0  0  0
  1 82  1  0  0  0  0
  1 83  1  0  0  0  0
  2  3  1  0  0  0  0
  2 31  1  0  0  0  0
  2 84  1  0  0  0  0
  3  4  2  0  0  0  0
  3  5  1  0  0  0  0
  5  6  1  0  0  0  0
  5 85  1  0  0  0  0
  5 86  1  0  0  0  0
  6  7  1  0  0  0  0
  6 87  1  0  0  0  0
  6 88  1  0  0  0  0
  7  8  1  0  0  0  0
  7  9  1  0  0  0  0
  7 89  1  1  0  0  0
  8 90  1  0  0  0  0
  8 91  1  0  0  0  0
  8 92  1  0  0  0  0
  9 10  1  0  0  0  0
  9 29  1  0  0  0  0
  9 93  1  6  0  0  0
 10 11  1  0  0  0  0
 10 94  1  0  0  0  0
 10 95  1  0  0  0  0
 11 12  1  0  0  0  0
 11 96  1  0  0  0  0
 11 97  1  0  0  0  0
 12 13  1  0  0  0  0
 12 29  1  0  0  0  0
 12 98  1  6  0  0  0
 13 14  1  0  0  0  0
 13 25  1  0  0  0  0
 13 99  1  1  0  0  0
 14 15  1  0  0  0  0
 14 16  1  0  0  0  0
 14100  1  6  0  0  0
 15101  1  0  0  0  0
 16 17  1  0  0  0  0
 16102  1  0  0  0  0
 16103  1  0  0  0  0
 17 18  1  0  0  0  0
 17 23  1  0  0  0  0
 17104  1  1  0  0  0
 18 19  1  0  0  0  0
 18105  1  0  0  0  0
 18106  1  0  0  0  0
 19 20  1  0  0  0  0
 19 21  1  0  0  0  0
 19107  1  1  0  0  0
 20108  1  0  0  0  0
 21 22  1  0  0  0  0
 21109  1  0  0  0  0
 21110  1  0  0  0  0
 22 23  1  0  0  0  0
 22111  1  0  0  0  0
 22112  1  0  0  0  0
 23 24  1  6  0  0  0
 23 25  1  0  0  0  0
 24113  1  0  0  0  0
 24114  1  0  0  0  0
 24115  1  0  0  0  0
 25 26  1  0  0  0  0
 25116  1  1  0  0  0
 26 27  1  0  0  0  0
 26117  1  0  0  0  0
 26118  1  0  0  0  0
 27 28  1  0  0  0  0
 27 29  1  0  0  0  0
 27119  1  6  0  0  0
 28120  1  0  0  0  0
 29 30  1  1  0  0  0
 30121  1  0  0  0  0
 30122  1  0  0  0  0
 30123  1  0  0  0  0
 31 32  2  0  0  0  0
 31 33  1  0  0  0  0
 33 34  1  0  0  0  0
 34 35  1  0  0  0  0
 34124  1  0  0  0  0
 34125  1  0  0  0  0
 35 36  1  0  0  0  0
 35126  1  0  0  0  0
 35127  1  0  0  0  0
 36 37  1  0  0  0  0
 36128  1  0  0  0  0
 37 38  2  0  0  0  0
 37 39  1  0  0  0  0
 39 40  1  0  0  0  0
 39129  1  0  0  0  0
 39130  1  0  0  0  0
 40 41  1  0  0  0  0
 40131  1  0  0  0  0
 40132  1  0  0  0  0
 41 42  1  0  0  0  0
 41133  1  0  0  0  0
 42 43  2  0  0  0  0
 44 46  1  0  0  0  0
 44 45  1  0  0  0  0
 44 42  1  0  0  0  0
 44134  1  1  0  0  0
 45135  1  0  0  0  0
 46 47  1  0  0  0  0
 46 48  1  0  0  0  0
 46 49  1  0  0  0  0
 47136  1  0  0  0  0
 47137  1  0  0  0  0
 47138  1  0  0  0  0
 48139  1  0  0  0  0
 48140  1  0  0  0  0
 48141  1  0  0  0  0
 49 50  1  0  0  0  0
 49142  1  0  0  0  0
 49143  1  0  0  0  0
 50 51  1  0  0  0  0
 51 52  2  0  0  0  0
 51 53  1  0  0  0  0
 51 54  1  0  0  0  0
 53144  1  0  0  0  0
 54 55  1  0  0  0  0
 55 56  2  0  0  0  0
 55 57  1  0  0  0  0
 55 58  1  0  0  0  0
 57145  1  0  0  0  0
 58 59  1  0  0  0  0
 59146  1  0  0  0  0
 59147  1  0  0  0  0
 60 61  1  0  0  0  0
 60 75  1  0  0  0  0
 60 59  1  0  0  0  0
 60148  1  1  0  0  0
 61 62  1  0  0  0  0
 62 73  1  0  0  0  0
 62 63  1  0  0  0  0
 62149  1  1  0  0  0
 63 64  1  0  0  0  0
 63 72  1  0  0  0  0
 64 65  2  0  0  0  0
 64150  1  0  0  0  0
 65 66  1  0  0  0  0
 66 67  1  0  0  0  0
 66 72  2  0  0  0  0
 67 68  1  0  0  0  0
 67 69  2  0  0  0  0
 68151  1  0  0  0  0
 68152  1  0  0  0  0
 69 70  1  0  0  0  0
 70 71  2  0  0  0  0
 70153  1  0  0  0  0
 71 72  1  0  0  0  0
 73 74  1  0  0  0  0
 73 75  1  0  0  0  0
 73154  1  6  0  0  0
 74155  1  0  0  0  0
 75 76  1  0  0  0  0
 75156  1  6  0  0  0
 76 77  1  0  0  0  0
 77 78  2  0  0  0  0
 77 79  1  0  0  0  0
 77 80  1  0  0  0  0
 79157  1  0  0  0  0
 80158  1  0  0  0  0
M  END
$$$$
