CHEBI:17683
 OpenBabel04242417063D

 59 61  0  0  1  0  0  0  0  0999 V2000
    9.4280   -2.8963    3.2550 O   0  0  0  0  0  0  0  0  0  0  0  0
    8.4555   -2.7790    3.9800 C   0  0  0  0  0  0  0  0  0  0  0  0
    7.4825   -3.7202    4.0734 O   0  0  0  0  0  0  0  0  0  0  0  0
    8.2298   -1.6309    4.9568 C   0  0  2  0  0  0  0  0  0  0  0  0
    6.8903   -1.6354    5.4836 O   0  0  0  0  0  0  0  0  0  0  0  0
    6.6580   -0.6265    6.4820 C   0  0  0  0  0  0  0  0  0  0  0  0
    5.4283    0.0758    6.3032 O   0  0  0  0  0  0  0  0  0  0  0  0
    4.7113    0.2969    4.8929 P   0  0  0  0  0  0  0  0  0  0  0  0
    5.3715   -0.3105    3.6954 O   0  0  0  0  0  0  0  0  0  0  0  0
    3.2897   -0.4100    5.1511 O   0  0  0  0  0  0  0  0  0  0  0  0
    4.2703    1.8225    4.7365 O   0  0  0  0  0  0  0  0  0  0  0  0
    5.3011    3.2098    4.6584 P   0  0  0  0  0  0  0  0  0  0  0  0
    6.0178    2.6863    5.8908 O   0  0  0  0  0  0  0  0  0  0  0  0
    5.9595    2.6870    3.2712 O   0  0  0  0  0  0  0  0  0  0  0  0
    6.3318    4.5970    4.5803 O   0  0  0  0  0  0  0  0  0  0  0  0
    7.2708    4.8484    5.6295 C   0  0  0  0  0  0  0  0  0  0  0  0
    8.1212    6.0981    5.3867 C   0  0  1  0  0  0  0  0  0  0  0  0
    8.7494    6.0276    4.0846 O   0  0  0  0  0  0  0  0  0  0  0  0
    8.4239    7.2301    3.3577 C   0  0  1  0  0  0  0  0  0  0  0  0
    8.3053    6.9584    1.9157 N   0  0  0  0  0  0  0  0  0  0  0  0
    8.5573    5.7011    1.3956 C   0  0  0  0  0  0  0  0  0  0  0  0
    8.4963    5.4464    0.0864 C   0  0  0  0  0  0  0  0  0  0  0  0
    8.1474    6.5362   -0.8350 C   0  0  0  0  0  0  0  0  0  0  0  0
    8.0430    6.3437   -2.0397 O   0  0  0  0  0  0  0  0  0  0  0  0
    7.9532    7.7555   -0.2579 N   0  0  0  0  0  0  0  0  0  0  0  0
    8.0240    8.0319    1.0796 C   0  0  0  0  0  0  0  0  0  0  0  0
    7.8220    9.1767    1.4831 O   0  0  0  0  0  0  0  0  0  0  0  0
    7.1318    7.7731    3.9993 C   0  0  2  0  0  0  0  0  0  0  0  0
    6.9418    9.1896    3.9194 O   0  0  0  0  0  0  0  0  0  0  0  0
    7.3348    7.3991    5.4527 C   0  0  2  0  0  0  0  0  0  0  0  0
    8.1429    8.4090    6.0847 O   0  0  0  0  0  0  0  0  0  0  0  0
    7.8443    0.3650    6.6705 C   0  0  2  0  0  0  0  0  0  0  0  0
    7.5042    1.4206    7.5711 O   0  0  0  0  0  0  0  0  0  0  0  0
    8.2606    0.8591    5.2814 C   0  0  1  0  0  0  0  0  0  0  0  0
    9.3258    1.8046    5.3144 O   0  0  0  0  0  0  0  0  0  0  0  0
    8.5868   -0.2848    4.3170 C   0  0  2  0  0  0  0  0  0  0  0  0
    7.8674    0.0038    3.1030 O   0  0  0  0  0  0  0  0  0  0  0  0
    6.7921   -3.4166    4.7037 H   0  0  0  0  0  0  0  0  0  0  0  0
    8.9105   -1.8480    5.7901 H   0  0  0  0  0  0  0  0  0  0  0  0
    6.5341   -1.1604    7.4309 H   0  0  0  0  0  0  0  0  0  0  0  0
    2.9144   -0.7695    4.3273 H   0  0  0  0  0  0  0  0  0  0  0  0
    6.8247    2.2449    3.3167 H   0  0  0  0  0  0  0  0  0  0  0  0
    7.9539    3.9977    5.6875 H   0  0  0  0  0  0  0  0  0  0  0  0
    6.7316    4.9521    6.5781 H   0  0  0  0  0  0  0  0  0  0  0  0
    8.9283    6.1071    6.1292 H   0  0  0  0  0  0  0  0  0  0  0  0
    9.2489    7.9434    3.4855 H   0  0  0  0  0  0  0  0  0  0  0  0
    8.8193    4.9082    2.0896 H   0  0  0  0  0  0  0  0  0  0  0  0
    8.6942    4.4720   -0.3396 H   0  0  0  0  0  0  0  0  0  0  0  0
    7.7262    8.5210   -0.8733 H   0  0  0  0  0  0  0  0  0  0  0  0
    6.2499    7.2690    3.5891 H   0  0  0  0  0  0  0  0  0  0  0  0
    7.1533    9.4580    2.9963 H   0  0  0  0  0  0  0  0  0  0  0  0
    6.4033    7.3402    6.0223 H   0  0  0  0  0  0  0  0  0  0  0  0
    7.8111    9.2602    5.7256 H   0  0  0  0  0  0  0  0  0  0  0  0
    8.6998   -0.1423    7.1280 H   0  0  0  0  0  0  0  0  0  0  0  0
    6.8413    1.9833    7.1091 H   0  0  0  0  0  0  0  0  0  0  0  0
    7.4259    1.4004    4.8688 H   0  0  0  0  0  0  0  0  0  0  0  0
    9.4619    2.1220    4.4018 H   0  0  0  0  0  0  0  0  0  0  0  0
    9.6458   -0.2648    4.0409 H   0  0  0  0  0  0  0  0  0  0  0  0
    6.9519   -0.3625    3.1691 H   0  0  0  0  0  0  0  0  0  0  0  0
  1  2  2  0  0  0  0
  2  3  1  0  0  0  0
  2  4  1  0  0  0  0
  3 38  1  0  0  0  0
  4  5  1  0  0  0  0
  4 36  1  0  0  0  0
  4 39  1  1  0  0  0
  5  6  1  0  0  0  0
  6  7  1  0  0  0  0
  6 32  1  0  0  0  0
  6 40  1  0  0  0  0
  7  8  1  0  0  0  0
  8  9  2  0  0  0  0
  8 10  1  0  0  0  0
  8 11  1  0  0  0  0
 10 41  1  0  0  0  0
 11 12  1  0  0  0  0
 12 13  2  0  0  0  0
 12 14  1  0  0  0  0
 12 15  1  0  0  0  0
 14 42  1  0  0  0  0
 15 16  1  0  0  0  0
 16 17  1  0  0  0  0
 16 43  1  0  0  0  0
 16 44  1  0  0  0  0
 17 18  1  0  0  0  0
 17 30  1  0  0  0  0
 17 45  1  1  0  0  0
 18 19  1  0  0  0  0
 19 20  1  0  0  0  0
 19 28  1  0  0  0  0
 19 46  1  1  0  0  0
 20 21  1  0  0  0  0
 20 26  1  0  0  0  0
 21 22  2  0  0  0  0
 21 47  1  0  0  0  0
 22 23  1  0  0  0  0
 22 48  1  0  0  0  0
 23 24  2  0  0  0  0
 23 25  1  0  0  0  0
 25 26  1  0  0  0  0
 25 49  1  0  0  0  0
 26 27  2  0  0  0  0
 28 29  1  0  0  0  0
 28 30  1  0  0  0  0
 28 50  1  6  0  0  0
 29 51  1  0  0  0  0
 30 31  1  0  0  0  0
 30 52  1  1  0  0  0
 31 53  1  0  0  0  0
 32 33  1  0  0  0  0
 32 34  1  0  0  0  0
 32 54  1  1  0  0  0
 33 55  1  0  0  0  0
 34 35  1  0  0  0  0
 34 36  1  0  0  0  0
 34 56  1  6  0  0  0
 35 57  1  0  0  0  0
 36 37  1  0  0  0  0
 36 58  1  6  0  0  0
 37 59  1  0  0  0  0
M  END
$$$$
