CHEBI:15410
 OpenBabel04242411493D

 29 29  0  0  1  0  0  0  0  0999 V2000
    3.4536   -0.0882    1.3174 C   0  0  0  0  0  0  0  0  0  0  0  0
    2.4819    0.0068    0.1306 C   0  0  0  0  0  0  0  0  0  0  0  0
    2.4811    1.4561   -0.3702 C   0  0  0  0  0  0  0  0  0  0  0  0
    2.8513   -1.0178   -0.9768 C   0  0  2  0  0  0  0  0  0  0  0  0
    2.0996   -0.7868   -2.3006 C   0  0  0  0  0  0  0  0  0  0  0  0
    2.4464   -1.8362   -3.3623 C   0  0  0  0  0  0  0  0  0  0  0  0
    2.1750   -3.2615   -2.8646 C   0  0  1  0  0  0  0  0  0  0  0  0
    2.5547   -4.2892   -3.9277 C   0  0  0  0  0  0  0  0  0  0  0  0
    2.9305   -3.5254   -1.5635 C   0  0  0  0  0  0  0  0  0  0  0  0
    2.5651   -2.4625   -0.5511 C   0  0  0  0  0  0  0  0  0  0  0  0
    2.0990   -2.7711    0.5437 O   0  0  0  0  0  0  0  0  0  0  0  0
    3.1795    0.6285    2.0995 H   0  0  0  0  0  0  0  0  0  0  0  0
    4.4803    0.1318    1.0052 H   0  0  0  0  0  0  0  0  0  0  0  0
    3.4477   -1.0808    1.7754 H   0  0  0  0  0  0  0  0  0  0  0  0
    1.4735   -0.2151    0.5039 H   0  0  0  0  0  0  0  0  0  0  0  0
    3.4370    1.7135   -0.8390 H   0  0  0  0  0  0  0  0  0  0  0  0
    2.3123    2.1549    0.4566 H   0  0  0  0  0  0  0  0  0  0  0  0
    1.6809    1.6276   -1.0966 H   0  0  0  0  0  0  0  0  0  0  0  0
    3.9309   -0.9505   -1.1680 H   0  0  0  0  0  0  0  0  0  0  0  0
    2.3472    0.1964   -2.7150 H   0  0  0  0  0  0  0  0  0  0  0  0
    1.0169   -0.8020   -2.1211 H   0  0  0  0  0  0  0  0  0  0  0  0
    3.5020   -1.7305   -3.6433 H   0  0  0  0  0  0  0  0  0  0  0  0
    1.8561   -1.6395   -4.2655 H   0  0  0  0  0  0  0  0  0  0  0  0
    1.0982   -3.3555   -2.6688 H   0  0  0  0  0  0  0  0  0  0  0  0
    3.6203   -4.2330   -4.1746 H   0  0  0  0  0  0  0  0  0  0  0  0
    1.9846   -4.1237   -4.8480 H   0  0  0  0  0  0  0  0  0  0  0  0
    2.3407   -5.3052   -3.5795 H   0  0  0  0  0  0  0  0  0  0  0  0
    4.0164   -3.5031   -1.7099 H   0  0  0  0  0  0  0  0  0  0  0  0
    2.6676   -4.5089   -1.1583 H   0  0  0  0  0  0  0  0  0  0  0  0
  1  2  1  0  0  0  0
  1 12  1  0  0  0  0
  1 13  1  0  0  0  0
  1 14  1  0  0  0  0
  2  3  1  0  0  0  0
  2  4  1  0  0  0  0
  2 15  1  0  0  0  0
  3 16  1  0  0  0  0
  3 17  1  0  0  0  0
  3 18  1  0  0  0  0
  4  5  1  0  0  0  0
  4 10  1  0  0  0  0
  4 19  1  6  0  0  0
  5  6  1  0  0  0  0
  5 20  1  0  0  0  0
  5 21  1  0  0  0  0
  6  7  1  0  0  0  0
  6 22  1  0  0  0  0
  6 23  1  0  0  0  0
  7  8  1  0  0  0  0
  7  9  1  0  0  0  0
  7 24  1  1  0  0  0
  8 25  1  0  0  0  0
  8 26  1  0  0  0  0
  8 27  1  0  0  0  0
  9 10  1  0  0  0  0
  9 28  1  0  0  0  0
  9 29  1  0  0  0  0
 10 11  2  0  0  0  0
M  END
$$$$
