CHEBI:3485
 OpenBabel04242410503D

 39 41  0  0  1  0  0  0  0  0999 V2000
    5.7984   -3.4525   -1.7175 C   0  0  0  0  0  0  0  0  0  0  0  0
    4.7949   -2.5736   -1.5927 C   0  0  0  0  0  0  0  0  0  0  0  0
    4.8340   -1.2849   -0.8901 C   0  0  0  0  0  0  0  0  0  0  0  0
    3.8311   -0.3727   -0.9773 C   0  0  0  0  0  0  0  0  0  0  0  0
    2.5573   -0.6492   -1.7073 C   0  0  0  0  0  0  0  0  0  0  0  0
    1.8549   -1.6396   -1.6195 O   0  0  0  0  0  0  0  0  0  0  0  0
    2.2581    0.3576   -2.5524 O   0  0  0  0  0  0  0  0  0  0  0  0
    3.9354    0.8647   -0.4090 N   0  0  0  0  0  0  0  0  0  0  0  0
    3.0278    1.7030    0.1403 C   0  0  0  0  0  0  0  0  0  0  0  0
    1.8189    1.7103    0.1565 O   0  0  0  0  0  0  0  0  0  0  0  0
    4.1665    2.4881    0.8558 C   0  0  1  0  0  0  0  0  0  0  0  0
    4.0650    2.5628    2.3335 N   0  0  0  0  0  0  0  0  0  0  0  0
    4.9169    3.3671    3.0629 C   0  0  0  0  0  0  0  0  0  0  0  0
    5.8220    4.0320    2.5773 O   0  0  0  0  0  0  0  0  0  0  0  0
    4.6283    3.4084    4.5623 C   0  0  0  0  0  0  0  0  0  0  0  0
    5.4190    2.8731    5.4528 N   0  0  0  0  0  0  0  0  0  0  0  0
    6.5282    2.2608    4.8560 O   0  0  0  0  0  0  0  0  0  0  0  0
    3.3978    4.0366    5.0333 C   0  0  0  0  0  0  0  0  0  0  0  0
    3.0987    4.3102    6.3564 C   0  0  0  0  0  0  0  0  0  0  0  0
    1.5460    5.0220    6.4772 S   0  0  0  0  0  0  0  0  0  0  0  0
    1.3718    4.9125    4.7750 C   0  0  0  0  0  0  0  0  0  0  0  0
    0.2590    5.3291    4.1544 N   0  0  0  0  0  0  0  0  0  0  0  0
    2.3844    4.3779    4.1405 N   0  0  0  0  0  0  0  0  0  0  0  0
    5.1080    1.4093    0.2374 C   0  0  1  0  0  0  0  0  0  0  0  0
    5.7836    0.1396    1.3385 S   0  0  0  0  0  0  0  0  0  0  0  0
    6.0619   -1.0415   -0.0192 C   0  0  0  0  0  0  0  0  0  0  0  0
    5.6414   -4.3757   -2.2701 H   0  0  0  0  0  0  0  0  0  0  0  0
    6.7891   -3.3065   -1.3029 H   0  0  0  0  0  0  0  0  0  0  0  0
    3.8637   -2.8537   -2.0842 H   0  0  0  0  0  0  0  0  0  0  0  0
    1.3803    0.1103   -2.9089 H   0  0  0  0  0  0  0  0  0  0  0  0
    4.2957    3.4866    0.4178 H   0  0  0  0  0  0  0  0  0  0  0  0
    3.2685    2.1552    2.8137 H   0  0  0  0  0  0  0  0  0  0  0  0
    7.0563    1.9675    5.6224 H   0  0  0  0  0  0  0  0  0  0  0  0
    3.7061    4.1309    7.2327 H   0  0  0  0  0  0  0  0  0  0  0  0
   -0.5910    5.4211    4.6967 H   0  0  0  0  0  0  0  0  0  0  0  0
    0.1192    4.9959    3.2069 H   0  0  0  0  0  0  0  0  0  0  0  0
    5.8323    1.8237   -0.4733 H   0  0  0  0  0  0  0  0  0  0  0  0
    6.3704   -1.9639    0.4831 H   0  0  0  0  0  0  0  0  0  0  0  0
    6.8979   -0.6948   -0.6369 H   0  0  0  0  0  0  0  0  0  0  0  0
  1  2  2  0  0  0  0
  1 27  1  0  0  0  0
  1 28  1  0  0  0  0
  2  3  1  0  0  0  0
  2 29  1  0  0  0  0
  3  4  2  0  0  0  0
  3 26  1  0  0  0  0
  4  5  1  0  0  0  0
  4  8  1  0  0  0  0
  5  6  2  0  0  0  0
  5  7  1  0  0  0  0
  7 30  1  0  0  0  0
  8  9  1  0  0  0  0
  8 24  1  0  0  0  0
  9 10  2  0  0  0  0
  9 11  1  0  0  0  0
 11 24  1  0  0  0  0
 11 12  1  0  0  0  0
 11 31  1  6  0  0  0
 12 13  1  0  0  0  0
 12 32  1  0  0  0  0
 13 14  2  0  0  0  0
 13 15  1  0  0  0  0
 15 16  2  0  0  0  0
 15 18  1  0  0  0  0
 16 17  1  0  0  0  0
 17 33  1  0  0  0  0
 18 19  2  0  0  0  0
 18 23  1  0  0  0  0
 19 20  1  0  0  0  0
 19 34  1  0  0  0  0
 20 21  1  0  0  0  0
 21 22  1  0  0  0  0
 21 23  2  0  0  0  0
 22 35  1  0  0  0  0
 22 36  1  0  0  0  0
 24 25  1  0  0  0  0
 24 37  1  6  0  0  0
 25 26  1  0  0  0  0
 26 38  1  0  0  0  0
 26 39  1  0  0  0  0
M  END
$$$$
