CHEBI:17397
 OpenBabel04242416293D

 20 21  0  0  0  0  0  0  0  0999 V2000
    0.9594    0.1650   -0.1773 C   0  0  0  0  0  0  0  0  0  0  0  0
    2.4675   -0.0098   -0.1500 C   0  0  0  0  0  0  0  0  0  0  0  0
    3.1244    1.0015    0.8102 C   0  0  0  0  0  0  0  0  0  0  0  0
    3.0367    2.2177    0.7666 O   0  0  0  0  0  0  0  0  0  0  0  0
    3.8464    0.2774    1.7509 N   0  0  0  0  0  0  0  0  0  0  0  0
    3.7243   -1.0863    1.5412 C   0  0  0  0  0  0  0  0  0  0  0  0
    4.2893   -2.1026    2.2810 C   0  0  0  0  0  0  0  0  0  0  0  0
    4.0199   -3.4126    1.8779 C   0  0  0  0  0  0  0  0  0  0  0  0
    3.2041   -3.6681    0.7596 C   0  0  0  0  0  0  0  0  0  0  0  0
    2.6423   -2.6186    0.0255 C   0  0  0  0  0  0  0  0  0  0  0  0
    2.9104   -1.3248    0.4346 C   0  0  0  0  0  0  0  0  0  0  0  0
    0.6922    1.1566   -0.5578 H   0  0  0  0  0  0  0  0  0  0  0  0
    0.5249    0.0707    0.8247 H   0  0  0  0  0  0  0  0  0  0  0  0
    0.4852   -0.5842   -0.8199 H   0  0  0  0  0  0  0  0  0  0  0  0
    2.9094    0.1223   -1.1437 H   0  0  0  0  0  0  0  0  0  0  0  0
    4.3696    0.7161    2.4931 H   0  0  0  0  0  0  0  0  0  0  0  0
    4.9174   -1.9027    3.1410 H   0  0  0  0  0  0  0  0  0  0  0  0
    4.4450   -4.2463    2.4323 H   0  0  0  0  0  0  0  0  0  0  0  0
    3.0101   -4.6968    0.4628 H   0  0  0  0  0  0  0  0  0  0  0  0
    2.0175   -2.8208   -0.8385 H   0  0  0  0  0  0  0  0  0  0  0  0
  1  2  1  0  0  0  0
  1 12  1  0  0  0  0
  1 13  1  0  0  0  0
  1 14  1  0  0  0  0
  2  3  1  0  0  0  0
  2 11  1  0  0  0  0
  2 15  1  0  0  0  0
  3  4  2  0  0  0  0
  3  5  1  0  0  0  0
  5  6  1  0  0  0  0
  5 16  1  0  0  0  0
  6  7  1  0  0  0  0
  6 11  2  0  0  0  0
  7  8  2  0  0  0  0
  7 17  1  0  0  0  0
  8  9  1  0  0  0  0
  8 18  1  0  0  0  0
  9 10  2  0  0  0  0
  9 19  1  0  0  0  0
 10 11  1  0  0  0  0
 10 20  1  0  0  0  0
M  END
$$$$
