CHEBI:17337
 OpenBabel04242416203D

 16 16  0  0  0  0  0  0  0  0999 V2000
    3.1716   -1.2810   -2.1893 O   0  0  0  0  0  0  0  0  0  0  0  0
    3.4072   -0.0975   -1.9973 C   0  0  0  0  0  0  0  0  0  0  0  0
    3.3733    0.8158   -2.9890 O   0  0  0  0  0  0  0  0  0  0  0  0
    3.7874    0.4553   -0.6570 C   0  0  0  0  0  0  0  0  0  0  0  0
    5.2978    0.4990   -0.4950 C   0  0  0  0  0  0  0  0  0  0  0  0
    5.6872    1.0619    1.1580 Cl  0  0  0  0  0  0  0  0  0  0  0  0
    6.0473   -0.7486   -0.7607 C   0  0  0  0  0  0  0  0  0  0  0  0
    6.9571   -0.5589   -1.7127 C   0  0  0  0  0  0  0  0  0  0  0  0
    6.8440    0.8391   -2.1232 C   0  0  0  0  0  0  0  0  0  0  0  0
    7.5145    1.3724   -2.9856 O   0  0  0  0  0  0  0  0  0  0  0  0
    5.8507    1.4440   -1.4135 O   0  0  0  0  0  0  0  0  0  0  0  0
    3.6249    1.7283   -2.7408 H   0  0  0  0  0  0  0  0  0  0  0  0
    3.3166   -0.1787    0.1050 H   0  0  0  0  0  0  0  0  0  0  0  0
    3.3387    1.4517   -0.5579 H   0  0  0  0  0  0  0  0  0  0  0  0
    5.8715   -1.6867   -0.2533 H   0  0  0  0  0  0  0  0  0  0  0  0
    7.6562   -1.2556   -2.1395 H   0  0  0  0  0  0  0  0  0  0  0  0
  1  2  2  0  0  0  0
  2  3  1  0  0  0  0
  2  4  1  0  0  0  0
  3 12  1  0  0  0  0
  4  5  1  0  0  0  0
  4 13  1  0  0  0  0
  4 14  1  0  0  0  0
  5  6  1  0  0  0  0
  5  7  1  0  0  0  0
  5 11  1  0  0  0  0
  7  8  2  0  0  0  0
  7 15  1  0  0  0  0
  8  9  1  0  0  0  0
  8 16  1  0  0  0  0
  9 10  2  0  0  0  0
  9 11  1  0  0  0  0
M  END
$$$$
