CHEBI:15397
 OpenBabel04242411483D

 27 28  0  0  1  0  0  0  0  0999 V2000
    0.9133    0.0555    0.0822 C   0  0  0  0  0  0  0  0  0  0  0  0
    2.4537    0.0994    0.0650 C   0  0  0  0  0  0  0  0  0  0  0  0
    2.9094    0.0953    1.5385 C   0  0  0  0  0  0  0  0  0  0  0  0
    3.1027   -1.0094   -0.8095 C   0  0  1  0  0  0  0  0  0  0  0  0
    2.6172   -0.6549   -2.2383 C   0  0  0  0  0  0  0  0  0  0  0  0
    2.6157    0.8903   -2.2381 C   0  0  0  0  0  0  0  0  0  0  0  0
    3.0673    1.2346   -0.8001 C   0  0  1  0  0  0  0  0  0  0  0  0
    2.8161    2.6611   -0.3745 C   0  0  0  0  0  0  0  0  0  0  0  0
    4.5402    0.8126   -0.7851 C   0  0  0  0  0  0  0  0  0  0  0  0
    5.5036    1.5620   -0.8222 O   0  0  0  0  0  0  0  0  0  0  0  0
    4.6193   -0.7008   -0.7516 C   0  0  0  0  0  0  0  0  0  0  0  0
    0.5645   -0.8694    0.5558 H   0  0  0  0  0  0  0  0  0  0  0  0
    0.4499    0.1020   -0.9057 H   0  0  0  0  0  0  0  0  0  0  0  0
    0.5080    0.8967    0.6561 H   0  0  0  0  0  0  0  0  0  0  0  0
    2.6467   -0.8552    2.0165 H   0  0  0  0  0  0  0  0  0  0  0  0
    2.4167    0.8979    2.0994 H   0  0  0  0  0  0  0  0  0  0  0  0
    3.9844    0.2421    1.6732 H   0  0  0  0  0  0  0  0  0  0  0  0
    2.8656   -2.0358   -0.5192 H   0  0  0  0  0  0  0  0  0  0  0  0
    1.6110   -1.0438   -2.4266 H   0  0  0  0  0  0  0  0  0  0  0  0
    3.2744   -1.0589   -3.0157 H   0  0  0  0  0  0  0  0  0  0  0  0
    1.6167    1.2782   -2.4641 H   0  0  0  0  0  0  0  0  0  0  0  0
    3.3051    1.2807   -2.9957 H   0  0  0  0  0  0  0  0  0  0  0  0
    1.7461    2.8910   -0.3613 H   0  0  0  0  0  0  0  0  0  0  0  0
    3.3012    3.3643   -1.0604 H   0  0  0  0  0  0  0  0  0  0  0  0
    3.2193    2.8568    0.6246 H   0  0  0  0  0  0  0  0  0  0  0  0
    5.0775   -1.0387    0.1803 H   0  0  0  0  0  0  0  0  0  0  0  0
    5.1637   -1.0869   -1.6163 H   0  0  0  0  0  0  0  0  0  0  0  0
  1  2  1  0  0  0  0
  1 12  1  0  0  0  0
  1 13  1  0  0  0  0
  1 14  1  0  0  0  0
  2  3  1  0  0  0  0
  2  4  1  0  0  0  0
  2  7  1  0  0  0  0
  3 15  1  0  0  0  0
  3 16  1  0  0  0  0
  3 17  1  0  0  0  0
  4  5  1  0  0  0  0
  4 11  1  0  0  0  0
  4 18  1  1  0  0  0
  5  6  1  0  0  0  0
  5 19  1  0  0  0  0
  5 20  1  0  0  0  0
  6  7  1  0  0  0  0
  6 21  1  0  0  0  0
  6 22  1  0  0  0  0
  7  8  1  1  0  0  0
  7  9  1  0  0  0  0
  8 23  1  0  0  0  0
  8 24  1  0  0  0  0
  8 25  1  0  0  0  0
  9 10  2  0  0  0  0
  9 11  1  0  0  0  0
 11 26  1  0  0  0  0
 11 27  1  0  0  0  0
M  END
$$$$
