CHEBI:17573
 OpenBabel04242416503D

 79 83  0  0  1  0  0  0  0  0999 V2000
    4.1275    1.5775    0.7449 C   0  0  0  0  0  0  0  0  0  0  0  0
    4.6059    1.1012   -0.6475 C   0  0  0  0  0  0  0  0  0  0  0  0
    6.1038    0.7262   -0.4599 C   0  0  0  0  0  0  0  0  0  0  0  0
    4.5151    2.2966   -1.6404 C   0  0  1  0  0  0  0  0  0  0  0  0
    5.3592    2.0946   -2.7788 O   0  0  0  0  0  0  0  0  0  0  0  0
    3.0911    2.5767   -2.1250 C   0  0  0  0  0  0  0  0  0  0  0  0
    2.4100    1.3428   -2.7187 C   0  0  0  0  0  0  0  0  0  0  0  0
    2.3742    0.1075   -1.7704 C   0  0  2  0  0  0  0  0  0  0  0  0
    1.3694    0.3988   -0.6240 C   0  0  0  0  0  0  0  0  0  0  0  0
    1.8659   -1.1463   -2.6155 C   0  0  1  0  0  0  0  0  0  0  0  0
    0.3228   -1.1861   -2.6873 C   0  0  0  0  0  0  0  0  0  0  0  0
   -0.3208   -0.4137   -3.3914 O   0  0  0  0  0  0  0  0  0  0  0  0
   -0.3771   -2.1184   -1.7739 C   0  0  0  0  0  0  0  0  0  0  0  0
    0.2296   -3.2862   -1.4921 C   0  0  0  0  0  0  0  0  0  0  0  0
   -0.0827   -4.0422   -0.1887 C   0  0  2  0  0  0  0  0  0  0  0  0
   -1.4113   -3.6913    0.5218 C   0  0  0  0  0  0  0  0  0  0  0  0
   -1.5650   -4.3554    1.9084 C   0  0  1  0  0  0  0  0  0  0  0  0
   -0.6297   -3.7159    2.9536 C   0  0  0  0  0  0  0  0  0  0  0  0
   -2.9767   -4.0450    2.4918 C   0  0  0  0  0  0  0  0  0  0  0  0
   -3.4745   -4.9408    3.2318 O   0  0  0  0  0  0  0  0  0  0  0  0
   -3.4574   -2.9154    2.1875 O   0  5  0  0  0  0  0  0  0  0  0  0
   -1.3277   -5.8685    1.8103 C   0  0  0  0  0  0  0  0  0  0  0  0
   -0.0157   -6.2233    1.1134 C   0  0  0  0  0  0  0  0  0  0  0  0
    0.1528   -5.5674   -0.2814 C   0  0  1  0  0  0  0  0  0  0  0  0
   -0.8122   -6.2511   -1.2729 C   0  0  0  0  0  0  0  0  0  0  0  0
    1.6204   -5.7720   -0.7099 C   0  0  0  0  0  0  0  0  0  0  0  0
    1.9543   -5.1671   -2.0665 C   0  0  0  0  0  0  0  0  0  0  0  0
    1.4086   -3.7315   -2.3921 C   0  0  2  0  0  0  0  0  0  0  0  0
    0.8944   -3.8697   -3.8737 C   0  0  0  0  0  0  0  0  0  0  0  0
    2.5187   -2.5638   -2.2941 C   0  0  1  0  0  0  0  0  0  0  0  0
    3.6295   -2.8037   -3.3697 C   0  0  0  0  0  0  0  0  0  0  0  0
    3.2057   -2.6282   -0.8973 C   0  0  0  0  0  0  0  0  0  0  0  0
    3.8443   -1.3672   -0.3176 C   0  0  0  0  0  0  0  0  0  0  0  0
    3.8249   -0.1466   -1.2385 C   0  0  1  0  0  0  0  0  0  0  0  0
    3.2243    2.1870    0.7066 H   0  0  0  0  0  0  0  0  0  0  0  0
    4.8842    2.2225    1.2098 H   0  0  0  0  0  0  0  0  0  0  0  0
    3.9592    0.7494    1.4380 H   0  0  0  0  0  0  0  0  0  0  0  0
    6.5179    0.2338   -1.3459 H   0  0  0  0  0  0  0  0  0  0  0  0
    6.2486    0.0553    0.3941 H   0  0  0  0  0  0  0  0  0  0  0  0
    6.7089    1.6201   -0.2648 H   0  0  0  0  0  0  0  0  0  0  0  0
    4.8980    3.2021   -1.1538 H   0  0  0  0  0  0  0  0  0  0  0  0
    5.0664    1.2943   -3.2434 H   0  0  0  0  0  0  0  0  0  0  0  0
    3.1227    3.3510   -2.9021 H   0  0  0  0  0  0  0  0  0  0  0  0
    2.4830    2.9792   -1.3086 H   0  0  0  0  0  0  0  0  0  0  0  0
    2.9353    1.0791   -3.6461 H   0  0  0  0  0  0  0  0  0  0  0  0
    1.3929    1.6187   -3.0229 H   0  0  0  0  0  0  0  0  0  0  0  0
    0.3855    0.6855   -1.0129 H   0  0  0  0  0  0  0  0  0  0  0  0
    1.6610    1.2346    0.0037 H   0  0  0  0  0  0  0  0  0  0  0  0
    1.2270   -0.4672    0.0292 H   0  0  0  0  0  0  0  0  0  0  0  0
    2.1322   -0.9468   -3.6649 H   0  0  0  0  0  0  0  0  0  0  0  0
   -1.2270   -1.7012   -1.2495 H   0  0  0  0  0  0  0  0  0  0  0  0
    0.6826   -3.6685    0.5045 H   0  0  0  0  0  0  0  0  0  0  0  0
   -2.2579   -3.9654   -0.1210 H   0  0  0  0  0  0  0  0  0  0  0  0
   -1.4702   -2.6045    0.6607 H   0  0  0  0  0  0  0  0  0  0  0  0
    0.4274   -3.8657    2.7143 H   0  0  0  0  0  0  0  0  0  0  0  0
   -0.7952   -4.1416    3.9510 H   0  0  0  0  0  0  0  0  0  0  0  0
   -0.7921   -2.6343    3.0330 H   0  0  0  0  0  0  0  0  0  0  0  0
   -2.1627   -6.3409    1.2781 H   0  0  0  0  0  0  0  0  0  0  0  0
   -1.3191   -6.3224    2.8100 H   0  0  0  0  0  0  0  0  0  0  0  0
    0.0547   -7.3154    1.0245 H   0  0  0  0  0  0  0  0  0  0  0  0
    0.8164   -5.9279    1.7655 H   0  0  0  0  0  0  0  0  0  0  0  0
   -1.8581   -6.1410   -0.9713 H   0  0  0  0  0  0  0  0  0  0  0  0
   -0.6021   -7.3247   -1.3400 H   0  0  0  0  0  0  0  0  0  0  0  0
   -0.7350   -5.8449   -2.2833 H   0  0  0  0  0  0  0  0  0  0  0  0
    1.8563   -6.8443   -0.7376 H   0  0  0  0  0  0  0  0  0  0  0  0
    2.2951   -5.3424    0.0419 H   0  0  0  0  0  0  0  0  0  0  0  0
    1.5750   -5.8819   -2.8108 H   0  0  0  0  0  0  0  0  0  0  0  0
    3.0398   -5.2132   -2.1940 H   0  0  0  0  0  0  0  0  0  0  0  0
   -0.0308   -4.4562   -3.9177 H   0  0  0  0  0  0  0  0  0  0  0  0
    1.6292   -4.3873   -4.5027 H   0  0  0  0  0  0  0  0  0  0  0  0
    0.6890   -2.9199   -4.3725 H   0  0  0  0  0  0  0  0  0  0  0  0
    3.2336   -2.7334   -4.3889 H   0  0  0  0  0  0  0  0  0  0  0  0
    4.1027   -3.7839   -3.2735 H   0  0  0  0  0  0  0  0  0  0  0  0
    4.4342   -2.0684   -3.3041 H   0  0  0  0  0  0  0  0  0  0  0  0
    3.9734   -3.4152   -0.9177 H   0  0  0  0  0  0  0  0  0  0  0  0
    2.5032   -2.9741   -0.1387 H   0  0  0  0  0  0  0  0  0  0  0  0
    4.8692   -1.6130   -0.0191 H   0  0  0  0  0  0  0  0  0  0  0  0
    3.3264   -1.1340    0.6204 H   0  0  0  0  0  0  0  0  0  0  0  0
    4.4158   -0.4242   -2.1184 H   0  0  0  0  0  0  0  0  0  0  0  0
  1  2  1  0  0  0  0
  1 35  1  0  0  0  0
  1 36  1  0  0  0  0
  1 37  1  0  0  0  0
  2  4  1  0  0  0  0
  2 34  1  0  0  0  0
  2  3  1  0  0  0  0
  3 38  1  0  0  0  0
  3 39  1  0  0  0  0
  3 40  1  0  0  0  0
  4  6  1  0  0  0  0
  4  5  1  0  0  0  0
  4 41  1  1  0  0  0
  5 42  1  0  0  0  0
  6  7  1  0  0  0  0
  6 43  1  0  0  0  0
  6 44  1  0  0  0  0
  7  8  1  0  0  0  0
  7 45  1  0  0  0  0
  7 46  1  0  0  0  0
  8 10  1  0  0  0  0
  8 34  1  0  0  0  0
  8  9  1  6  0  0  0
  9 47  1  0  0  0  0
  9 48  1  0  0  0  0
  9 49  1  0  0  0  0
 10 11  1  0  0  0  0
 10 30  1  0  0  0  0
 10 50  1  1  0  0  0
 11 13  1  0  0  0  0
 11 12  2  0  0  0  0
 13 14  2  0  0  0  0
 13 51  1  0  0  0  0
 14 15  1  0  0  0  0
 14 28  1  0  0  0  0
 15 16  1  0  0  0  0
 15 24  1  0  0  0  0
 15 52  1  6  0  0  0
 16 17  1  0  0  0  0
 16 53  1  0  0  0  0
 16 54  1  0  0  0  0
 17 22  1  0  0  0  0
 17 19  1  1  0  0  0
 17 18  1  0  0  0  0
 18 55  1  0  0  0  0
 18 56  1  0  0  0  0
 18 57  1  0  0  0  0
 19 20  2  0  0  0  0
 19 21  1  0  0  0  0
 22 23  1  0  0  0  0
 22 58  1  0  0  0  0
 22 59  1  0  0  0  0
 23 24  1  0  0  0  0
 23 60  1  0  0  0  0
 23 61  1  0  0  0  0
 24 26  1  0  0  0  0
 24 25  1  6  0  0  0
 25 62  1  0  0  0  0
 25 63  1  0  0  0  0
 25 64  1  0  0  0  0
 26 27  1  0  0  0  0
 26 65  1  0  0  0  0
 26 66  1  0  0  0  0
 27 28  1  0  0  0  0
 27 67  1  0  0  0  0
 27 68  1  0  0  0  0
 28 30  1  0  0  0  0
 28 29  1  1  0  0  0
 29 69  1  0  0  0  0
 29 70  1  0  0  0  0
 29 71  1  0  0  0  0
 30 32  1  0  0  0  0
 30 31  1  6  0  0  0
 31 72  1  0  0  0  0
 31 73  1  0  0  0  0
 31 74  1  0  0  0  0
 32 33  1  0  0  0  0
 32 75  1  0  0  0  0
 32 76  1  0  0  0  0
 33 34  1  0  0  0  0
 33 77  1  0  0  0  0
 33 78  1  0  0  0  0
 34 79  1  1  0  0  0
M  CHG  1  21  -1
M  END
$$$$
