CHEBI:21759
 OpenBabel04252409393D

 15 14  0  0  0  0  0  0  0  0999 V2000
    0.7835   -0.5154    1.7306 C   0  0  0  0  0  0  0  0  0  0  0  0
    2.0051   -0.5593    0.9081 N   0  0  0  0  0  0  0  0  0  0  0  0
    2.4260   -1.7114    0.3087 N   0  0  0  0  0  0  0  0  0  0  0  0
    1.7246   -2.6950    0.5667 O   0  0  0  0  0  0  0  0  0  0  0  0
    2.7618    0.6018    0.7100 C   0  0  0  0  0  0  0  0  0  0  0  0
    3.5620    0.8111   -0.3019 N   0  0  0  0  0  0  0  0  0  0  0  0
    2.6113    1.6826    1.5367 N   0  0  0  0  0  0  0  0  0  0  0  0
    3.1908    1.5594    2.7554 N   0  3  0  0  0  0  0  0  0  0  0  0
    2.9954    0.5317    3.4053 O   0  0  0  0  0  0  0  0  0  0  0  0
    3.8064    2.5636    3.1132 O   0  5  0  0  0  0  0  0  0  0  0  0
   -0.0378   -1.0403    1.2287 H   0  0  0  0  0  0  0  0  0  0  0  0
    0.4284    0.5057    1.9029 H   0  0  0  0  0  0  0  0  0  0  0  0
    0.9556   -0.9963    2.6989 H   0  0  0  0  0  0  0  0  0  0  0  0
    3.5827   -0.0272   -0.8963 H   0  0  0  0  0  0  0  0  0  0  0  0
    2.9985    2.4883    1.0596 H   0  0  0  0  0  0  0  0  0  0  0  0
  1  2  1  0  0  0  0
  1 11  1  0  0  0  0
  1 12  1  0  0  0  0
  1 13  1  0  0  0  0
  2  3  1  0  0  0  0
  2  5  1  0  0  0  0
  3  4  2  0  0  0  0
  5  6  2  0  0  0  0
  5  7  1  0  0  0  0
  6 14  1  0  0  0  0
  7  8  1  0  0  0  0
  7 15  1  0  0  0  0
  8  9  2  0  0  0  0
  8 10  1  0  0  0  0
M  CHG  2   8   1  10  -1
M  END
$$$$
