CHEBI:18205
 OpenBabel04242423473D

 29 29  0  0  1  0  0  0  0  0999 V2000
    1.8969   -1.0537    0.7546 O   0  0  0  0  0  0  0  0  0  0  0  0
    1.9047   -1.8779    1.9910 P   0  0  0  0  0  0  0  0  0  0  0  0
    0.7407   -1.5358    3.0232 O   0  0  0  0  0  0  0  0  0  0  0  0
    1.6700   -3.4361    1.7543 O   0  0  0  0  0  0  0  0  0  0  0  0
    3.2202   -1.8264    2.8927 O   0  0  0  0  0  0  0  0  0  0  0  0
    4.4595   -1.8418    2.2222 C   0  0  1  0  0  0  0  0  0  0  0  0
    5.5285   -1.5565    3.1481 O   0  0  0  0  0  0  0  0  0  0  0  0
    5.6481   -2.5566    4.1868 C   0  0  2  0  0  0  0  0  0  0  0  0
    6.7619   -2.0971    5.1359 C   0  0  0  0  0  0  0  0  0  0  0  0
    6.4362   -0.8156    5.6802 O   0  0  0  0  0  0  0  0  0  0  0  0
    5.9637   -3.9342    3.5928 C   0  0  1  0  0  0  0  0  0  0  0  0
    5.9737   -4.9442    4.6033 O   0  0  0  0  0  0  0  0  0  0  0  0
    4.9286   -4.2983    2.5218 C   0  0  2  0  0  0  0  0  0  0  0  0
    5.3645   -5.5051    1.8714 O   0  0  0  0  0  0  0  0  0  0  0  0
    4.7745   -3.1679    1.5006 C   0  0  2  0  0  0  0  0  0  0  0  0
    6.0065   -3.0729    0.7525 O   0  0  0  0  0  0  0  0  0  0  0  0
    0.6799   -0.5796    3.2020 H   0  0  0  0  0  0  0  0  0  0  0  0
    0.8465   -3.6036    1.2602 H   0  0  0  0  0  0  0  0  0  0  0  0
    4.4843   -1.0208    1.4973 H   0  0  0  0  0  0  0  0  0  0  0  0
    4.7127   -2.5805    4.7604 H   0  0  0  0  0  0  0  0  0  0  0  0
    6.9020   -2.7947    5.9665 H   0  0  0  0  0  0  0  0  0  0  0  0
    7.7113   -1.9872    4.6012 H   0  0  0  0  0  0  0  0  0  0  0  0
    6.1219   -0.2802    4.9275 H   0  0  0  0  0  0  0  0  0  0  0  0
    6.9637   -3.9307    3.1412 H   0  0  0  0  0  0  0  0  0  0  0  0
    5.9307   -5.7973    4.1246 H   0  0  0  0  0  0  0  0  0  0  0  0
    3.9683   -4.5280    2.9971 H   0  0  0  0  0  0  0  0  0  0  0  0
    5.9032   -5.2158    1.1059 H   0  0  0  0  0  0  0  0  0  0  0  0
    4.0015   -3.4307    0.7737 H   0  0  0  0  0  0  0  0  0  0  0  0
    6.5553   -2.3814    1.1724 H   0  0  0  0  0  0  0  0  0  0  0  0
  1  2  2  0  0  0  0
  2  3  1  0  0  0  0
  2  4  1  0  0  0  0
  2  5  1  0  0  0  0
  3 17  1  0  0  0  0
  4 18  1  0  0  0  0
  5  6  1  0  0  0  0
  6  7  1  0  0  0  0
  6 15  1  0  0  0  0
  6 19  1  6  0  0  0
  7  8  1  0  0  0  0
  8 11  1  0  0  0  0
  8  9  1  0  0  0  0
  8 20  1  1  0  0  0
  9 10  1  0  0  0  0
  9 21  1  0  0  0  0
  9 22  1  0  0  0  0
 10 23  1  0  0  0  0
 11 12  1  0  0  0  0
 11 13  1  0  0  0  0
 11 24  1  6  0  0  0
 12 25  1  0  0  0  0
 13 14  1  0  0  0  0
 13 15  1  0  0  0  0
 13 26  1  1  0  0  0
 14 27  1  0  0  0  0
 15 16  1  0  0  0  0
 15 28  1  6  0  0  0
 16 29  1  0  0  0  0
M  END
$$$$
