CHEBI:16960
 OpenBabel04242415363D

 59 62  0  0  1  0  0  0  0  0999 V2000
   12.2966   -3.7061    7.4295 N   0  0  0  0  0  0  0  0  0  0  0  0
   11.1876   -4.5287    7.5675 C   0  0  0  0  0  0  0  0  0  0  0  0
   10.3699   -4.3274    8.6266 N   0  0  0  0  0  0  0  0  0  0  0  0
    9.2992   -5.1360    8.7760 C   0  0  0  0  0  0  0  0  0  0  0  0
    8.8952   -6.1527    7.9813 N   0  0  0  0  0  0  0  0  0  0  0  0
    9.7413   -6.3051    6.9459 C   0  0  0  0  0  0  0  0  0  0  0  0
   10.8668   -5.5512    6.6589 C   0  0  0  0  0  0  0  0  0  0  0  0
   11.4526   -5.9784    5.4849 N   0  0  0  0  0  0  0  0  0  0  0  0
   10.7135   -6.9955    5.0882 C   0  0  0  0  0  0  0  0  0  0  0  0
    9.6781   -7.2419    5.9481 N   0  0  0  0  0  0  0  0  0  0  0  0
    8.7006   -8.3134    5.8866 C   0  0  2  0  0  0  0  0  0  0  0  0
    8.9742   -9.1665    4.7558 O   0  0  0  0  0  0  0  0  0  0  0  0
    7.7083   -9.5451    4.1583 C   0  0  2  0  0  0  0  0  0  0  0  0
    7.6669   -9.0157    2.7244 C   0  0  0  0  0  0  0  0  0  0  0  0
    7.8229   -7.6031    2.7012 O   0  0  0  0  0  0  0  0  0  0  0  0
    7.6820   -6.8857    1.2682 P   0  0  0  0  0  0  0  0  0  0  0  0
    6.2786   -6.7763    0.7825 O   0  0  0  0  0  0  0  0  0  0  0  0
    8.3592   -5.4660    1.5516 O   0  0  0  0  0  0  0  0  0  0  0  0
    8.7122   -7.6247    0.3218 O   0  0  0  0  0  0  0  0  0  0  0  0
    8.8217   -7.3822   -1.2384 P   0  0  0  0  0  0  0  0  0  0  0  0
    8.7055   -5.9772   -1.7243 O   0  0  0  0  0  0  0  0  0  0  0  0
   10.2713   -7.9937   -1.5557 O   0  0  0  0  0  0  0  0  0  0  0  0
    7.8664   -8.4647   -1.9336 O   0  0  0  0  0  0  0  0  0  0  0  0
    6.6023   -8.0472   -2.4191 C   0  0  0  0  0  0  0  0  0  0  0  0
    5.9197   -9.2148   -3.1342 C   0  0  1  0  0  0  0  0  0  0  0  0
    4.5775   -8.8130   -3.5111 O   0  0  0  0  0  0  0  0  0  0  0  0
    4.4354   -9.0622   -4.9068 C   0  0  0  0  0  0  0  0  0  0  0  0
    3.5876   -8.0949   -5.4950 O   0  0  0  0  0  0  0  0  0  0  0  0
    5.8391   -8.9499   -5.4943 C   0  0  2  0  0  0  0  0  0  0  0  0
    5.9805   -9.5926   -6.7608 O   0  0  0  0  0  0  0  0  0  0  0  0
    6.6495   -9.6404   -4.4164 C   0  0  2  0  0  0  0  0  0  0  0  0
    6.5454  -11.0618   -4.5993 O   0  0  0  0  0  0  0  0  0  0  0  0
    6.6047   -8.9829    5.0495 C   0  0  1  0  0  0  0  0  0  0  0  0
    6.2561   -9.9582    6.0458 O   0  0  0  0  0  0  0  0  0  0  0  0
    7.2660   -7.8021    5.7327 C   0  0  1  0  0  0  0  0  0  0  0  0
    6.5993   -7.5213    6.9677 O   0  0  0  0  0  0  0  0  0  0  0  0
   12.2012   -2.8346    7.9327 H   0  0  0  0  0  0  0  0  0  0  0  0
   12.6704   -3.6768    6.4877 H   0  0  0  0  0  0  0  0  0  0  0  0
    8.6822   -4.9404    9.6493 H   0  0  0  0  0  0  0  0  0  0  0  0
   10.8888   -7.5885    4.1986 H   0  0  0  0  0  0  0  0  0  0  0  0
    8.8288   -8.9068    6.8003 H   0  0  0  0  0  0  0  0  0  0  0  0
    7.6767  -10.6402    4.1338 H   0  0  0  0  0  0  0  0  0  0  0  0
    6.7220   -9.2878    2.2423 H   0  0  0  0  0  0  0  0  0  0  0  0
    8.4939   -9.4551    2.1567 H   0  0  0  0  0  0  0  0  0  0  0  0
    7.6935   -4.7795    1.7421 H   0  0  0  0  0  0  0  0  0  0  0  0
   10.9653   -7.3151   -1.4715 H   0  0  0  0  0  0  0  0  0  0  0  0
    6.7218   -7.1959   -3.0987 H   0  0  0  0  0  0  0  0  0  0  0  0
    5.9804   -7.7126   -1.5845 H   0  0  0  0  0  0  0  0  0  0  0  0
    5.8319  -10.0638   -2.4462 H   0  0  0  0  0  0  0  0  0  0  0  0
    4.0003  -10.0558   -5.0682 H   0  0  0  0  0  0  0  0  0  0  0  0
    2.7168   -8.2565   -5.0929 H   0  0  0  0  0  0  0  0  0  0  0  0
    6.1364   -7.8997   -5.5985 H   0  0  0  0  0  0  0  0  0  0  0  0
    5.3222   -9.1687   -7.3451 H   0  0  0  0  0  0  0  0  0  0  0  0
    7.7128   -9.3870   -4.4428 H   0  0  0  0  0  0  0  0  0  0  0  0
    6.6837  -11.2030   -5.5592 H   0  0  0  0  0  0  0  0  0  0  0  0
    5.6846   -8.7247    4.5178 H   0  0  0  0  0  0  0  0  0  0  0  0
    5.8782   -9.4407    6.7886 H   0  0  0  0  0  0  0  0  0  0  0  0
    7.2181   -6.9092    5.0998 H   0  0  0  0  0  0  0  0  0  0  0  0
    7.1833   -6.9146    7.4742 H   0  0  0  0  0  0  0  0  0  0  0  0
  1  2  1  0  0  0  0
  1 37  1  0  0  0  0
  1 38  1  0  0  0  0
  2  3  1  0  0  0  0
  2  7  2  0  0  0  0
  3  4  2  0  0  0  0
  4  5  1  0  0  0  0
  4 39  1  0  0  0  0
  5  6  2  0  0  0  0
  6  7  1  0  0  0  0
  6 10  1  0  0  0  0
  7  8  1  0  0  0  0
  8  9  2  0  0  0  0
  9 10  1  0  0  0  0
  9 40  1  0  0  0  0
 10 11  1  0  0  0  0
 11 12  1  0  0  0  0
 11 35  1  0  0  0  0
 11 41  1  1  0  0  0
 12 13  1  0  0  0  0
 13 14  1  0  0  0  0
 13 33  1  0  0  0  0
 13 42  1  6  0  0  0
 14 15  1  0  0  0  0
 14 43  1  0  0  0  0
 14 44  1  0  0  0  0
 15 16  1  0  0  0  0
 16 17  2  0  0  0  0
 16 18  1  0  0  0  0
 16 19  1  0  0  0  0
 18 45  1  0  0  0  0
 19 20  1  0  0  0  0
 20 21  2  0  0  0  0
 20 22  1  0  0  0  0
 20 23  1  0  0  0  0
 22 46  1  0  0  0  0
 23 24  1  0  0  0  0
 24 25  1  0  0  0  0
 24 47  1  0  0  0  0
 24 48  1  0  0  0  0
 25 26  1  0  0  0  0
 25 31  1  0  0  0  0
 25 49  1  1  0  0  0
 26 27  1  0  0  0  0
 27 28  1  0  0  0  0
 27 29  1  0  0  0  0
 27 50  1  0  0  0  0
 28 51  1  0  0  0  0
 29 30  1  0  0  0  0
 29 31  1  0  0  0  0
 29 52  1  6  0  0  0
 30 53  1  0  0  0  0
 31 32  1  0  0  0  0
 31 54  1  6  0  0  0
 32 55  1  0  0  0  0
 33 34  1  0  0  0  0
 33 35  1  0  0  0  0
 33 56  1  6  0  0  0
 34 57  1  0  0  0  0
 35 36  1  0  0  0  0
 35 58  1  6  0  0  0
 36 59  1  0  0  0  0
M  END
$$$$
