CHEBI:3720
 OpenBabel04242410533D

 61 63  0  0  1  0  0  0  0  0999 V2000
    6.8501    7.4890   -2.7136 C   0  0  0  0  0  0  0  0  0  0  0  0
    6.8052    6.2664   -1.9824 O   0  0  0  0  0  0  0  0  0  0  0  0
    7.1653    6.3187   -0.6576 C   0  0  0  0  0  0  0  0  0  0  0  0
    7.8994    7.3872   -0.1104 C   0  0  0  0  0  0  0  0  0  0  0  0
    8.2774    7.4053    1.2390 C   0  0  0  0  0  0  0  0  0  0  0  0
    8.9030    8.5546    1.7575 N   0  0  0  0  0  0  0  0  0  0  0  0
    7.8262    6.3694    2.0686 C   0  0  0  0  0  0  0  0  0  0  0  0
    8.1727    6.3826    3.7627 Cl  0  0  0  0  0  0  0  0  0  0  0  0
    7.1253    5.2872    1.5403 C   0  0  0  0  0  0  0  0  0  0  0  0
    6.8025    5.2395    0.1735 C   0  0  0  0  0  0  0  0  0  0  0  0
    6.0898    4.0032   -0.2834 C   0  0  0  0  0  0  0  0  0  0  0  0
    6.0904    3.0002    0.4288 O   0  0  0  0  0  0  0  0  0  0  0  0
    5.4486    4.0406   -1.4957 N   0  0  0  0  0  0  0  0  0  0  0  0
    4.8053    2.8655   -2.0934 C   0  0  2  0  0  0  0  0  0  0  0  0
    5.8294    1.9628   -2.7884 C   0  0  0  0  0  0  0  0  0  0  0  0
    6.3863    2.6170   -4.0521 C   0  0  0  0  0  0  0  0  0  0  0  0
    5.3205    2.9699   -4.9957 N   0  0  0  0  0  0  0  0  0  0  0  0
    5.8345    3.5503   -6.2536 C   0  0  0  0  0  0  0  0  0  0  0  0
    6.7174    4.7989   -6.0940 C   0  0  0  0  0  0  0  0  0  0  0  0
    7.0327    5.4957   -7.4169 C   0  0  0  0  0  0  0  0  0  0  0  0
    5.8585    5.7994   -8.1708 O   0  0  0  0  0  0  0  0  0  0  0  0
    5.3590    7.0678   -8.0779 C   0  0  0  0  0  0  0  0  0  0  0  0
    4.7330    7.5486   -9.2322 C   0  0  0  0  0  0  0  0  0  0  0  0
    4.1416    8.8132   -9.2422 C   0  0  0  0  0  0  0  0  0  0  0  0
    4.1597    9.5832   -8.0868 C   0  0  0  0  0  0  0  0  0  0  0  0
    3.5808   10.7907   -8.0859 F   0  0  0  0  0  0  0  0  0  0  0  0
    4.7644    9.1139   -6.9276 C   0  0  0  0  0  0  0  0  0  0  0  0
    5.3695    7.8542   -6.9245 C   0  0  0  0  0  0  0  0  0  0  0  0
    4.2882    3.8230   -4.3855 C   0  0  0  0  0  0  0  0  0  0  0  0
    3.6864    3.2473   -3.0886 C   0  0  2  0  0  0  0  0  0  0  0  0
    2.7848    4.2346   -2.5565 O   0  0  0  0  0  0  0  0  0  0  0  0
    1.9543    3.7365   -1.5159 C   0  0  0  0  0  0  0  0  0  0  0  0
    6.3071    8.2881   -2.1974 H   0  0  0  0  0  0  0  0  0  0  0  0
    6.3532    7.3200   -3.6720 H   0  0  0  0  0  0  0  0  0  0  0  0
    7.8845    7.7804   -2.9226 H   0  0  0  0  0  0  0  0  0  0  0  0
    8.2025    8.2292   -0.7250 H   0  0  0  0  0  0  0  0  0  0  0  0
    9.5339    9.0204    1.1134 H   0  0  0  0  0  0  0  0  0  0  0  0
    9.3315    8.3870    2.6674 H   0  0  0  0  0  0  0  0  0  0  0  0
    6.8203    4.4748    2.1979 H   0  0  0  0  0  0  0  0  0  0  0  0
    5.5337    4.8854   -2.0518 H   0  0  0  0  0  0  0  0  0  0  0  0
    4.3656    2.2982   -1.2646 H   0  0  0  0  0  0  0  0  0  0  0  0
    5.3524    1.0100   -3.0528 H   0  0  0  0  0  0  0  0  0  0  0  0
    6.6572    1.7244   -2.1102 H   0  0  0  0  0  0  0  0  0  0  0  0
    7.0751    1.9092   -4.5291 H   0  0  0  0  0  0  0  0  0  0  0  0
    6.9733    3.4961   -3.7624 H   0  0  0  0  0  0  0  0  0  0  0  0
    4.9801    3.7673   -6.9062 H   0  0  0  0  0  0  0  0  0  0  0  0
    6.4104    2.7786   -6.7805 H   0  0  0  0  0  0  0  0  0  0  0  0
    7.6679    4.5298   -5.6192 H   0  0  0  0  0  0  0  0  0  0  0  0
    6.2254    5.5096   -5.4290 H   0  0  0  0  0  0  0  0  0  0  0  0
    7.6321    4.8184   -8.0366 H   0  0  0  0  0  0  0  0  0  0  0  0
    7.6535    6.3858   -7.2527 H   0  0  0  0  0  0  0  0  0  0  0  0
    4.7106    6.9351  -10.1294 H   0  0  0  0  0  0  0  0  0  0  0  0
    3.6623    9.1948  -10.1375 H   0  0  0  0  0  0  0  0  0  0  0  0
    4.7506    9.7256   -6.0313 H   0  0  0  0  0  0  0  0  0  0  0  0
    5.8151    7.5062   -6.0029 H   0  0  0  0  0  0  0  0  0  0  0  0
    3.4648    3.9645   -5.0985 H   0  0  0  0  0  0  0  0  0  0  0  0
    4.6679    4.8295   -4.1750 H   0  0  0  0  0  0  0  0  0  0  0  0
    3.1117    2.3484   -3.3519 H   0  0  0  0  0  0  0  0  0  0  0  0
    2.5421    3.4753   -0.6323 H   0  0  0  0  0  0  0  0  0  0  0  0
    1.3802    2.8713   -1.8606 H   0  0  0  0  0  0  0  0  0  0  0  0
    1.2533    4.5270   -1.2340 H   0  0  0  0  0  0  0  0  0  0  0  0
  1  2  1  0  0  0  0
  1 33  1  0  0  0  0
  1 34  1  0  0  0  0
  1 35  1  0  0  0  0
  2  3  1  0  0  0  0
  3  4  1  0  0  0  0
  3 10  2  0  0  0  0
  4  5  2  0  0  0  0
  4 36  1  0  0  0  0
  5  6  1  0  0  0  0
  5  7  1  0  0  0  0
  6 37  1  0  0  0  0
  6 38  1  0  0  0  0
  7  8  1  0  0  0  0
  7  9  2  0  0  0  0
  9 10  1  0  0  0  0
  9 39  1  0  0  0  0
 10 11  1  0  0  0  0
 11 12  2  0  0  0  0
 11 13  1  0  0  0  0
 13 14  1  0  0  0  0
 13 40  1  0  0  0  0
 14 15  1  0  0  0  0
 14 30  1  0  0  0  0
 14 41  1  1  0  0  0
 15 16  1  0  0  0  0
 15 42  1  0  0  0  0
 15 43  1  0  0  0  0
 16 17  1  0  0  0  0
 16 44  1  0  0  0  0
 16 45  1  0  0  0  0
 17 18  1  0  0  0  0
 17 29  1  0  0  0  0
 18 19  1  0  0  0  0
 18 46  1  0  0  0  0
 18 47  1  0  0  0  0
 19 20  1  0  0  0  0
 19 48  1  0  0  0  0
 19 49  1  0  0  0  0
 20 21  1  0  0  0  0
 20 50  1  0  0  0  0
 20 51  1  0  0  0  0
 21 22  1  0  0  0  0
 22 23  1  0  0  0  0
 22 28  2  0  0  0  0
 23 24  2  0  0  0  0
 23 52  1  0  0  0  0
 24 25  1  0  0  0  0
 24 53  1  0  0  0  0
 25 26  1  0  0  0  0
 25 27  2  0  0  0  0
 27 28  1  0  0  0  0
 27 54  1  0  0  0  0
 28 55  1  0  0  0  0
 29 30  1  0  0  0  0
 29 56  1  0  0  0  0
 29 57  1  0  0  0  0
 30 31  1  0  0  0  0
 30 58  1  6  0  0  0
 31 32  1  0  0  0  0
 32 59  1  0  0  0  0
 32 60  1  0  0  0  0
 32 61  1  0  0  0  0
M  END
$$$$
