CHEBI:16175
 OpenBabel04242413583D

 72 75  0  0  1  0  0  0  0  0999 V2000
    7.0179   -1.1808    3.6576 C   0  0  0  0  0  0  0  0  0  0  0  0
    8.2901   -0.8523    2.8752 C   0  0  0  0  0  0  0  0  0  0  0  0
    9.5125   -1.0310    3.7799 C   0  0  0  0  0  0  0  0  0  0  0  0
    8.4443   -1.7260    1.6174 C   0  0  0  0  0  0  0  0  0  0  0  0
    7.3648   -1.4779    0.5557 C   0  0  0  0  0  0  0  0  0  0  0  0
    7.6304   -2.3346   -0.6900 C   0  0  0  0  0  0  0  0  0  0  0  0
    6.5498   -2.2185   -1.7996 C   0  0  1  0  0  0  0  0  0  0  0  0
    6.5343   -0.7971   -2.3698 C   0  0  0  0  0  0  0  0  0  0  0  0
    6.8039   -3.2983   -2.8963 C   0  0  1  0  0  0  0  0  0  0  0  0
    6.7130   -4.7410   -2.3122 C   0  0  0  0  0  0  0  0  0  0  0  0
    6.2127   -5.6587   -3.4329 C   0  0  0  0  0  0  0  0  0  0  0  0
    6.2652   -4.7824   -4.6742 C   0  0  1  0  0  0  0  0  0  0  0  0
    5.4517   -5.2258   -5.8951 C   0  0  2  0  0  0  0  0  0  0  0  0
    5.8557   -6.6300   -6.3666 C   0  0  0  0  0  0  0  0  0  0  0  0
    5.0359   -7.0615   -7.5769 C   0  0  0  0  0  0  0  0  0  0  0  0
    5.0949   -6.0579   -8.7053 C   0  0  0  0  0  0  0  0  0  0  0  0
    5.3360   -6.4834   -9.9586 C   0  0  0  0  0  0  0  0  0  0  0  0
    5.2764   -5.5677  -11.1214 C   0  0  0  0  0  0  0  0  0  0  0  0
    5.5059   -6.0044  -12.2461 O   0  0  0  0  0  0  0  0  0  0  0  0
    4.8325   -4.1485  -10.8845 C   0  0  0  0  0  0  0  0  0  0  0  0
    5.2877   -3.6679   -9.5138 C   0  0  0  0  0  0  0  0  0  0  0  0
    4.8330   -4.5891   -8.3438 C   0  0  1  0  0  0  0  0  0  0  0  0
    3.3120   -4.4120   -8.1294 C   0  0  0  0  0  0  0  0  0  0  0  0
    5.6606   -4.2083   -7.0554 C   0  0  1  0  0  0  0  0  0  0  0  0
    5.4618   -2.7432   -6.5909 C   0  0  0  0  0  0  0  0  0  0  0  0
    6.2071   -2.3931   -5.2903 C   0  0  0  0  0  0  0  0  0  0  0  0
    5.8779   -3.3742   -4.1508 C   0  0  2  0  0  0  0  0  0  0  0  0
    4.3888   -3.2498   -3.7465 C   0  0  0  0  0  0  0  0  0  0  0  0
    6.9707   -0.5986    4.5843 H   0  0  0  0  0  0  0  0  0  0  0  0
    6.9791   -2.2424    3.9245 H   0  0  0  0  0  0  0  0  0  0  0  0
    6.1210   -0.9412    3.0788 H   0  0  0  0  0  0  0  0  0  0  0  0
    8.2470    0.2015    2.5728 H   0  0  0  0  0  0  0  0  0  0  0  0
    9.6169   -2.0714    4.1063 H   0  0  0  0  0  0  0  0  0  0  0  0
    9.4335   -0.4015    4.6725 H   0  0  0  0  0  0  0  0  0  0  0  0
   10.4302   -0.7473    3.2537 H   0  0  0  0  0  0  0  0  0  0  0  0
    8.4410   -2.7860    1.9019 H   0  0  0  0  0  0  0  0  0  0  0  0
    9.4251   -1.5259    1.1666 H   0  0  0  0  0  0  0  0  0  0  0  0
    7.3638   -0.4139    0.3003 H   0  0  0  0  0  0  0  0  0  0  0  0
    6.3751   -1.7251    0.9541 H   0  0  0  0  0  0  0  0  0  0  0  0
    7.7044   -3.3753   -0.3557 H   0  0  0  0  0  0  0  0  0  0  0  0
    8.6100   -2.0723   -1.1100 H   0  0  0  0  0  0  0  0  0  0  0  0
    5.5724   -2.4074   -1.3376 H   0  0  0  0  0  0  0  0  0  0  0  0
    7.4603   -0.5765   -2.9107 H   0  0  0  0  0  0  0  0  0  0  0  0
    6.4144   -0.0452   -1.5852 H   0  0  0  0  0  0  0  0  0  0  0  0
    5.6916   -0.6452   -3.0461 H   0  0  0  0  0  0  0  0  0  0  0  0
    7.8356   -3.1590   -3.2539 H   0  0  0  0  0  0  0  0  0  0  0  0
    6.0243   -4.7964   -1.4612 H   0  0  0  0  0  0  0  0  0  0  0  0
    7.6974   -5.0707   -1.9616 H   0  0  0  0  0  0  0  0  0  0  0  0
    5.1923   -5.9989   -3.2232 H   0  0  0  0  0  0  0  0  0  0  0  0
    6.8437   -6.5482   -3.5276 H   0  0  0  0  0  0  0  0  0  0  0  0
    7.3224   -4.7571   -4.9879 H   0  0  0  0  0  0  0  0  0  0  0  0
    4.3932   -5.2641   -5.6176 H   0  0  0  0  0  0  0  0  0  0  0  0
    5.7028   -7.3601   -5.5636 H   0  0  0  0  0  0  0  0  0  0  0  0
    6.9245   -6.6519   -6.6164 H   0  0  0  0  0  0  0  0  0  0  0  0
    3.9886   -7.1934   -7.2779 H   0  0  0  0  0  0  0  0  0  0  0  0
    5.3887   -8.0471   -7.9051 H   0  0  0  0  0  0  0  0  0  0  0  0
    5.5242   -7.5238  -10.2009 H   0  0  0  0  0  0  0  0  0  0  0  0
    3.7444   -4.0980  -10.9913 H   0  0  0  0  0  0  0  0  0  0  0  0
    5.2805   -3.5115  -11.6550 H   0  0  0  0  0  0  0  0  0  0  0  0
    4.9195   -2.6455   -9.3665 H   0  0  0  0  0  0  0  0  0  0  0  0
    6.3850   -3.6055   -9.5232 H   0  0  0  0  0  0  0  0  0  0  0  0
    2.7380   -4.7959   -8.9809 H   0  0  0  0  0  0  0  0  0  0  0  0
    3.0407   -3.3578   -8.0131 H   0  0  0  0  0  0  0  0  0  0  0  0
    2.9510   -4.9440   -7.2441 H   0  0  0  0  0  0  0  0  0  0  0  0
    6.7249   -4.2828   -7.3336 H   0  0  0  0  0  0  0  0  0  0  0  0
    4.3982   -2.5248   -6.4572 H   0  0  0  0  0  0  0  0  0  0  0  0
    5.8190   -2.0580   -7.3683 H   0  0  0  0  0  0  0  0  0  0  0  0
    5.9543   -1.3644   -5.0214 H   0  0  0  0  0  0  0  0  0  0  0  0
    7.2865   -2.4009   -5.4911 H   0  0  0  0  0  0  0  0  0  0  0  0
    4.1477   -2.2271   -3.4410 H   0  0  0  0  0  0  0  0  0  0  0  0
    4.1286   -3.9046   -2.9090 H   0  0  0  0  0  0  0  0  0  0  0  0
    3.7061   -3.4962   -4.5638 H   0  0  0  0  0  0  0  0  0  0  0  0
  1  2  1  0  0  0  0
  1 29  1  0  0  0  0
  1 30  1  0  0  0  0
  1 31  1  0  0  0  0
  2  3  1  0  0  0  0
  2  4  1  0  0  0  0
  2 32  1  0  0  0  0
  3 33  1  0  0  0  0
  3 34  1  0  0  0  0
  3 35  1  0  0  0  0
  4  5  1  0  0  0  0
  4 36  1  0  0  0  0
  4 37  1  0  0  0  0
  5  6  1  0  0  0  0
  5 38  1  0  0  0  0
  5 39  1  0  0  0  0
  6  7  1  0  0  0  0
  6 40  1  0  0  0  0
  6 41  1  0  0  0  0
  7  8  1  0  0  0  0
  7  9  1  0  0  0  0
  7 42  1  1  0  0  0
  8 43  1  0  0  0  0
  8 44  1  0  0  0  0
  8 45  1  0  0  0  0
  9 10  1  0  0  0  0
  9 27  1  0  0  0  0
  9 46  1  6  0  0  0
 10 11  1  0  0  0  0
 10 47  1  0  0  0  0
 10 48  1  0  0  0  0
 11 12  1  0  0  0  0
 11 49  1  0  0  0  0
 11 50  1  0  0  0  0
 12 13  1  0  0  0  0
 12 27  1  0  0  0  0
 12 51  1  6  0  0  0
 13 14  1  0  0  0  0
 13 24  1  0  0  0  0
 13 52  1  1  0  0  0
 14 15  1  0  0  0  0
 14 53  1  0  0  0  0
 14 54  1  0  0  0  0
 15 16  1  0  0  0  0
 15 55  1  0  0  0  0
 15 56  1  0  0  0  0
 16 17  2  0  0  0  0
 16 22  1  0  0  0  0
 17 18  1  0  0  0  0
 17 57  1  0  0  0  0
 18 19  2  0  0  0  0
 18 20  1  0  0  0  0
 20 21  1  0  0  0  0
 20 58  1  0  0  0  0
 20 59  1  0  0  0  0
 21 22  1  0  0  0  0
 21 60  1  0  0  0  0
 21 61  1  0  0  0  0
 22 23  1  1  0  0  0
 22 24  1  0  0  0  0
 23 62  1  0  0  0  0
 23 63  1  0  0  0  0
 23 64  1  0  0  0  0
 24 25  1  0  0  0  0
 24 65  1  6  0  0  0
 25 26  1  0  0  0  0
 25 66  1  0  0  0  0
 25 67  1  0  0  0  0
 26 27  1  0  0  0  0
 26 68  1  0  0  0  0
 26 69  1  0  0  0  0
 27 28  1  1  0  0  0
 28 70  1  0  0  0  0
 28 71  1  0  0  0  0
 28 72  1  0  0  0  0
M  END
$$$$
