CHEBI:15360
 OpenBabel04242411453D

 14 13  0  0  0  0  0  0  0  0999 V2000
    2.7905   -1.3729   -1.3750 C   0  0  0  0  0  0  0  0  0  0  0  0
    2.4146   -0.7189   -0.0710 C   0  0  0  0  0  0  0  0  0  0  0  0
    1.3123   -0.9455    0.4419 O   0  0  0  0  0  0  0  0  0  0  0  0
    3.3438    0.3020    0.5283 C   0  0  0  0  0  0  0  0  0  0  0  0
    4.7883   -0.0954    0.5036 C   0  0  0  0  0  0  0  0  0  0  0  0
    5.2995   -0.8240    1.3554 O   0  0  0  0  0  0  0  0  0  0  0  0
    5.6430    0.3564   -0.6803 C   0  0  0  0  0  0  0  0  0  0  0  0
    6.8929    0.1480   -0.6361 O   0  0  0  0  0  0  0  0  0  0  0  0
    4.9910    0.9075   -1.6238 O   0  5  0  0  0  0  0  0  0  0  0  0
    2.0274   -2.1098   -1.6435 H   0  0  0  0  0  0  0  0  0  0  0  0
    3.7437   -1.8971   -1.2791 H   0  0  0  0  0  0  0  0  0  0  0  0
    2.8391   -0.6210   -2.1653 H   0  0  0  0  0  0  0  0  0  0  0  0
    3.0668    0.4502    1.5788 H   0  0  0  0  0  0  0  0  0  0  0  0
    3.1915    1.2619    0.0265 H   0  0  0  0  0  0  0  0  0  0  0  0
  1  2  1  0  0  0  0
  1 10  1  0  0  0  0
  1 11  1  0  0  0  0
  1 12  1  0  0  0  0
  2  3  2  0  0  0  0
  2  4  1  0  0  0  0
  4  5  1  0  0  0  0
  4 13  1  0  0  0  0
  4 14  1  0  0  0  0
  5  6  2  0  0  0  0
  5  7  1  0  0  0  0
  7  8  2  0  0  0  0
  7  9  1  0  0  0  0
M  CHG  1   9  -1
M  END
$$$$
