CHEBI:18188
 OpenBabel04242423423D

 15 14  0  0  1  0  0  0  0  0999 V2000
    0.5450   -0.3109   -0.2622 C   0  0  0  0  0  0  0  0  0  0  0  0
    2.0554   -0.4639   -0.1311 C   0  0  1  0  0  0  0  0  0  0  0  0
    2.4607   -1.4336    0.9765 C   0  0  0  0  0  0  0  0  0  0  0  0
    2.0449   -0.9506    2.3065 N   0  0  0  0  0  0  0  0  0  0  0  0
    2.7269   -1.0366   -1.3914 C   0  0  0  0  0  0  0  0  0  0  0  0
    1.9792   -1.6484   -2.2035 O   0  0  0  0  0  0  0  0  0  0  0  0
    3.9725   -0.8206   -1.4661 O   0  5  0  0  0  0  0  0  0  0  0  0
    0.1217    0.1885    0.6153 H   0  0  0  0  0  0  0  0  0  0  0  0
    0.0478   -1.2813   -0.3694 H   0  0  0  0  0  0  0  0  0  0  0  0
    0.2916    0.2917   -1.1412 H   0  0  0  0  0  0  0  0  0  0  0  0
    2.4894    0.5273    0.0555 H   0  0  0  0  0  0  0  0  0  0  0  0
    3.5485   -1.5714    0.9976 H   0  0  0  0  0  0  0  0  0  0  0  0
    2.0167   -2.4224    0.8109 H   0  0  0  0  0  0  0  0  0  0  0  0
    2.4417   -0.0200    2.4278 H   0  0  0  0  0  0  0  0  0  0  0  0
    2.4878   -1.5449    3.0033 H   0  0  0  0  0  0  0  0  0  0  0  0
  1  2  1  0  0  0  0
  1  8  1  0  0  0  0
  1  9  1  0  0  0  0
  1 10  1  0  0  0  0
  2  3  1  0  0  0  0
  2  5  1  0  0  0  0
  2 11  1  1  0  0  0
  3  4  1  0  0  0  0
  3 12  1  0  0  0  0
  3 13  1  0  0  0  0
  4 14  1  0  0  0  0
  4 15  1  0  0  0  0
  5  6  2  0  0  0  0
  5  7  1  0  0  0  0
M  CHG  1   7  -1
M  END
$$$$
