CHEBI:17646
 OpenBabel04242417003D

 20 19  0  0  0  0  0  0  0  0999 V2000
    1.8271    1.0930    0.0292 C   0  0  0  0  0  0  0  0  0  0  0  0
    2.0388   -0.0219    1.0638 C   0  0  0  0  0  0  0  0  0  0  0  0
    3.4503   -0.2902    1.1514 O   0  0  0  0  0  0  0  0  0  0  0  0
    1.4794    0.3648    2.4467 C   0  0  0  0  0  0  0  0  0  0  0  0
    2.1736    1.5523    3.0695 C   0  0  0  0  0  0  0  0  0  0  0  0
    3.2665    1.9703    2.6951 O   0  0  0  0  0  0  0  0  0  0  0  0
    1.3744   -1.3047    0.5363 C   0  0  0  0  0  0  0  0  0  0  0  0
    1.5845   -2.5007    1.4326 C   0  0  0  0  0  0  0  0  0  0  0  0
    0.6791   -3.2362    1.7969 O   0  0  0  0  0  0  0  0  0  0  0  0
    2.8762   -2.7116    1.7675 O   0  0  0  0  0  0  0  0  0  0  0  0
    2.3650    2.0078    0.2969 H   0  0  0  0  0  0  0  0  0  0  0  0
    0.7659    1.3372   -0.0853 H   0  0  0  0  0  0  0  0  0  0  0  0
    2.2199    0.7919   -0.9491 H   0  0  0  0  0  0  0  0  0  0  0  0
    3.8717    0.5439    1.4691 H   0  0  0  0  0  0  0  0  0  0  0  0
    1.5977   -0.4526    3.1665 H   0  0  0  0  0  0  0  0  0  0  0  0
    0.4125    0.6028    2.3721 H   0  0  0  0  0  0  0  0  0  0  0  0
    1.6655    1.9957    3.9430 H   0  0  0  0  0  0  0  0  0  0  0  0
    1.7759   -1.5801   -0.4470 H   0  0  0  0  0  0  0  0  0  0  0  0
    0.2944   -1.1512    0.4232 H   0  0  0  0  0  0  0  0  0  0  0  0
    3.4543   -1.9770    1.4394 H   0  0  0  0  0  0  0  0  0  0  0  0
  1  2  1  0  0  0  0
  1 11  1  0  0  0  0
  1 12  1  0  0  0  0
  1 13  1  0  0  0  0
  2  3  1  0  0  0  0
  2  4  1  0  0  0  0
  2  7  1  0  0  0  0
  3 14  1  0  0  0  0
  4  5  1  0  0  0  0
  4 15  1  0  0  0  0
  4 16  1  0  0  0  0
  5  6  2  0  0  0  0
  5 17  1  0  0  0  0
  7  8  1  0  0  0  0
  7 18  1  0  0  0  0
  7 19  1  0  0  0  0
  8  9  2  0  0  0  0
  8 10  1  0  0  0  0
 10 20  1  0  0  0  0
M  END
$$$$
