CHEBI:1233
 OpenBabel04242410363D

118118  0  0  0  0  0  0  0  0999 V2000
   24.0057    7.0868    0.5048 C   0  0  0  0  0  0  0  0  0  0  0  0
   23.9383    6.6985   -0.9489 C   0  0  0  0  0  0  0  0  0  0  0  0
   24.9506    7.3738   -1.8273 C   0  0  0  0  0  0  0  0  0  0  0  0
   23.0127    5.8127   -1.3789 C   0  0  0  0  0  0  0  0  0  0  0  0
   22.8065    5.2807   -2.7714 C   0  0  0  0  0  0  0  0  0  0  0  0
   21.6374    5.9031   -3.5585 C   0  0  0  0  0  0  0  0  0  0  0  0
   20.2490    5.8600   -2.9427 C   0  0  0  0  0  0  0  0  0  0  0  0
   19.8751    4.6709   -2.1013 C   0  0  0  0  0  0  0  0  0  0  0  0
   19.4195    6.9076   -3.1317 C   0  0  0  0  0  0  0  0  0  0  0  0
   18.0802    7.1251   -2.4889 C   0  0  0  0  0  0  0  0  0  0  0  0
   18.1409    8.1870   -1.3834 C   0  0  0  0  0  0  0  0  0  0  0  0
   18.8801    7.7785   -0.1233 C   0  0  0  0  0  0  0  0  0  0  0  0
   20.3511    8.0881   -0.1230 C   0  0  0  0  0  0  0  0  0  0  0  0
   18.1915    7.2578    0.9136 C   0  0  0  0  0  0  0  0  0  0  0  0
   18.7022    6.8332    2.2611 C   0  0  0  0  0  0  0  0  0  0  0  0
   18.1443    7.6675    3.4353 C   0  0  0  0  0  0  0  0  0  0  0  0
   18.5874    9.1184    3.6099 C   0  0  0  0  0  0  0  0  0  0  0  0
   19.8014    9.5867    2.8657 C   0  0  0  0  0  0  0  0  0  0  0  0
   17.9116    9.9300    4.4550 C   0  0  0  0  0  0  0  0  0  0  0  0
   18.3017   11.3204    4.9100 C   0  0  0  0  0  0  0  0  0  0  0  0
   17.6081   12.5166    4.2278 C   0  0  0  0  0  0  0  0  0  0  0  0
   18.0117   12.8258    2.7925 C   0  0  0  0  0  0  0  0  0  0  0  0
   19.4685   13.0831    2.5215 C   0  0  0  0  0  0  0  0  0  0  0  0
   17.0574   12.9025    1.8439 C   0  0  0  0  0  0  0  0  0  0  0  0
   17.2077   13.0736    0.3570 C   0  0  0  0  0  0  0  0  0  0  0  0
   17.2877   11.7329   -0.4026 C   0  0  0  0  0  0  0  0  0  0  0  0
   16.0241   10.8667   -0.4534 C   0  0  0  0  0  0  0  0  0  0  0  0
   15.5716   10.2752    0.8545 C   0  0  0  0  0  0  0  0  0  0  0  0
   15.4440   10.5741   -1.6388 C   0  0  0  0  0  0  0  0  0  0  0  0
   14.2653    9.6679   -1.9402 C   0  0  0  0  0  0  0  0  0  0  0  0
   14.3872    8.1875   -1.5196 C   0  0  0  0  0  0  0  0  0  0  0  0
   13.1889    7.3078   -1.8552 C   0  0  0  0  0  0  0  0  0  0  0  0
   12.7862    7.3010   -3.3046 C   0  0  0  0  0  0  0  0  0  0  0  0
   12.6315    6.5234   -0.9071 C   0  0  0  0  0  0  0  0  0  0  0  0
   11.5201    5.5143   -1.0732 C   0  0  0  0  0  0  0  0  0  0  0  0
   12.0909    4.0964   -1.2402 C   0  0  0  0  0  0  0  0  0  0  0  0
   11.0464    3.0064   -1.4241 C   0  0  0  0  0  0  0  0  0  0  0  0
   10.1243    3.1896   -2.6015 C   0  0  0  0  0  0  0  0  0  0  0  0
   11.0393    1.9112   -0.6320 C   0  0  0  0  0  0  0  0  0  0  0  0
   10.1343    0.7140   -0.7708 C   0  0  0  0  0  0  0  0  0  0  0  0
    9.7618    0.0448    0.5319 C   0  0  0  0  0  0  0  0  0  0  0  0
    8.6185    0.4563    1.2370 C   0  0  0  0  0  0  0  0  0  0  0  0
    8.2038   -0.2189    2.3921 C   0  0  0  0  0  0  0  0  0  0  0  0
    8.9230   -1.3176    2.8637 C   0  0  0  0  0  0  0  0  0  0  0  0
   10.0674   -1.7134    2.1840 C   0  0  0  0  0  0  0  0  0  0  0  0
   10.8030   -2.7967    2.5844 O   0  0  0  0  0  0  0  0  0  0  0  0
   10.4939   -1.0283    1.0439 C   0  0  0  0  0  0  0  0  0  0  0  0
   11.6374   -1.4481    0.4196 O   0  0  0  0  0  0  0  0  0  0  0  0
   24.9743    6.7979    0.9273 H   0  0  0  0  0  0  0  0  0  0  0  0
   23.2286    6.6015    1.1047 H   0  0  0  0  0  0  0  0  0  0  0  0
   23.8852    8.1693    0.6165 H   0  0  0  0  0  0  0  0  0  0  0  0
   25.1756    6.8084   -2.7342 H   0  0  0  0  0  0  0  0  0  0  0  0
   24.5902    8.3664   -2.1163 H   0  0  0  0  0  0  0  0  0  0  0  0
   25.8993    7.4982   -1.2934 H   0  0  0  0  0  0  0  0  0  0  0  0
   22.3284    5.4003   -0.6402 H   0  0  0  0  0  0  0  0  0  0  0  0
   22.6626    4.1959   -2.6983 H   0  0  0  0  0  0  0  0  0  0  0  0
   23.7140    5.4018   -3.3717 H   0  0  0  0  0  0  0  0  0  0  0  0
   21.5810    5.3972   -4.5306 H   0  0  0  0  0  0  0  0  0  0  0  0
   21.9068    6.9473   -3.7730 H   0  0  0  0  0  0  0  0  0  0  0  0
   18.8143    4.4195   -2.1889 H   0  0  0  0  0  0  0  0  0  0  0  0
   20.0938    4.8665   -1.0468 H   0  0  0  0  0  0  0  0  0  0  0  0
   20.4227    3.7768   -2.4107 H   0  0  0  0  0  0  0  0  0  0  0  0
   19.7513    7.7359   -3.7570 H   0  0  0  0  0  0  0  0  0  0  0  0
   17.6447    6.2026   -2.0935 H   0  0  0  0  0  0  0  0  0  0  0  0
   17.3890    7.4688   -3.2694 H   0  0  0  0  0  0  0  0  0  0  0  0
   17.1140    8.4200   -1.1024 H   0  0  0  0  0  0  0  0  0  0  0  0
   18.5586    9.1243   -1.7720 H   0  0  0  0  0  0  0  0  0  0  0  0
   20.8312    7.7613   -1.0443 H   0  0  0  0  0  0  0  0  0  0  0  0
   20.8912    7.6046    0.6917 H   0  0  0  0  0  0  0  0  0  0  0  0
   20.5046    9.1692   -0.0500 H   0  0  0  0  0  0  0  0  0  0  0  0
   17.1184    7.1068    0.7900 H   0  0  0  0  0  0  0  0  0  0  0  0
   19.7932    6.7880    2.3039 H   0  0  0  0  0  0  0  0  0  0  0  0
   18.3783    5.7935    2.4081 H   0  0  0  0  0  0  0  0  0  0  0  0
   18.4441    7.1407    4.3527 H   0  0  0  0  0  0  0  0  0  0  0  0
   17.0472    7.6245    3.4021 H   0  0  0  0  0  0  0  0  0  0  0  0
   20.3993   10.2904    3.4450 H   0  0  0  0  0  0  0  0  0  0  0  0
   19.4932   10.0682    1.9324 H   0  0  0  0  0  0  0  0  0  0  0  0
   20.4883    8.7729    2.6366 H   0  0  0  0  0  0  0  0  0  0  0  0
   17.0334    9.5265    4.9599 H   0  0  0  0  0  0  0  0  0  0  0  0
   19.3874   11.4489    4.9011 H   0  0  0  0  0  0  0  0  0  0  0  0
   18.0417   11.3676    5.9772 H   0  0  0  0  0  0  0  0  0  0  0  0
   17.8162   13.4139    4.8245 H   0  0  0  0  0  0  0  0  0  0  0  0
   16.5229   12.3596    4.2937 H   0  0  0  0  0  0  0  0  0  0  0  0
   20.1174   12.3967    3.0644 H   0  0  0  0  0  0  0  0  0  0  0  0
   19.7291   14.0971    2.8412 H   0  0  0  0  0  0  0  0  0  0  0  0
   19.7277   12.9791    1.4644 H   0  0  0  0  0  0  0  0  0  0  0  0
   16.0211   12.8253    2.1656 H   0  0  0  0  0  0  0  0  0  0  0  0
   18.1055   13.6625    0.1335 H   0  0  0  0  0  0  0  0  0  0  0  0
   16.3663   13.6673   -0.0206 H   0  0  0  0  0  0  0  0  0  0  0  0
   18.1042   11.1286    0.0145 H   0  0  0  0  0  0  0  0  0  0  0  0
   17.6033   11.9696   -1.4286 H   0  0  0  0  0  0  0  0  0  0  0  0
   15.3160   11.0400    1.5824 H   0  0  0  0  0  0  0  0  0  0  0  0
   16.3569    9.6400    1.2733 H   0  0  0  0  0  0  0  0  0  0  0  0
   14.6597    9.6864    0.7689 H   0  0  0  0  0  0  0  0  0  0  0  0
   15.8693   11.0335   -2.5326 H   0  0  0  0  0  0  0  0  0  0  0  0
   14.1533    9.6887   -3.0332 H   0  0  0  0  0  0  0  0  0  0  0  0
   13.3518   10.1182   -1.5371 H   0  0  0  0  0  0  0  0  0  0  0  0
   14.5954    8.1060   -0.4501 H   0  0  0  0  0  0  0  0  0  0  0  0
   15.2526    7.7437   -2.0218 H   0  0  0  0  0  0  0  0  0  0  0  0
   12.3547    8.2672   -3.5839 H   0  0  0  0  0  0  0  0  0  0  0  0
   12.0521    6.5301   -3.5475 H   0  0  0  0  0  0  0  0  0  0  0  0
   13.6633    7.1164   -3.9343 H   0  0  0  0  0  0  0  0  0  0  0  0
   13.0287    6.5694    0.1074 H   0  0  0  0  0  0  0  0  0  0  0  0
   10.8762    5.7800   -1.9174 H   0  0  0  0  0  0  0  0  0  0  0  0
   10.8780    5.5535   -0.1845 H   0  0  0  0  0  0  0  0  0  0  0  0
   12.7305    3.8656   -0.3778 H   0  0  0  0  0  0  0  0  0  0  0  0
   12.7520    4.0747   -2.1177 H   0  0  0  0  0  0  0  0  0  0  0  0
   10.6705    3.6063   -3.4546 H   0  0  0  0  0  0  0  0  0  0  0  0
    9.3113    3.8745   -2.3417 H   0  0  0  0  0  0  0  0  0  0  0  0
    9.6841    2.2512   -2.9492 H   0  0  0  0  0  0  0  0  0  0  0  0
   11.7834    1.8301    0.1602 H   0  0  0  0  0  0  0  0  0  0  0  0
   10.6261   -0.0186   -1.4228 H   0  0  0  0  0  0  0  0  0  0  0  0
    9.2006    0.9805   -1.2794 H   0  0  0  0  0  0  0  0  0  0  0  0
    8.0302    1.2970    0.8742 H   0  0  0  0  0  0  0  0  0  0  0  0
    7.3075    0.1076    2.9142 H   0  0  0  0  0  0  0  0  0  0  0  0
    8.5809   -1.8400    3.7510 H   0  0  0  0  0  0  0  0  0  0  0  0
   10.2877   -3.2738    3.2577 H   0  0  0  0  0  0  0  0  0  0  0  0
   11.9677   -2.1779    0.9807 H   0  0  0  0  0  0  0  0  0  0  0  0
  1  2  1  0  0  0  0
  1 49  1  0  0  0  0
  1 50  1  0  0  0  0
  1 51  1  0  0  0  0
  2  3  1  0  0  0  0
  2  4  2  0  0  0  0
  3 52  1  0  0  0  0
  3 53  1  0  0  0  0
  3 54  1  0  0  0  0
  4  5  1  0  0  0  0
  4 55  1  0  0  0  0
  5  6  1  0  0  0  0
  5 56  1  0  0  0  0
  5 57  1  0  0  0  0
  6  7  1  0  0  0  0
  6 58  1  0  0  0  0
  6 59  1  0  0  0  0
  7  8  1  0  0  0  0
  7  9  2  0  0  0  0
  8 60  1  0  0  0  0
  8 61  1  0  0  0  0
  8 62  1  0  0  0  0
  9 10  1  0  0  0  0
  9 63  1  0  0  0  0
 10 11  1  0  0  0  0
 10 64  1  0  0  0  0
 10 65  1  0  0  0  0
 11 12  1  0  0  0  0
 11 66  1  0  0  0  0
 11 67  1  0  0  0  0
 12 13  1  0  0  0  0
 12 14  2  0  0  0  0
 13 68  1  0  0  0  0
 13 69  1  0  0  0  0
 13 70  1  0  0  0  0
 14 15  1  0  0  0  0
 14 71  1  0  0  0  0
 15 16  1  0  0  0  0
 15 72  1  0  0  0  0
 15 73  1  0  0  0  0
 16 17  1  0  0  0  0
 16 74  1  0  0  0  0
 16 75  1  0  0  0  0
 17 18  1  0  0  0  0
 17 19  2  0  0  0  0
 18 76  1  0  0  0  0
 18 77  1  0  0  0  0
 18 78  1  0  0  0  0
 19 20  1  0  0  0  0
 19 79  1  0  0  0  0
 20 21  1  0  0  0  0
 20 80  1  0  0  0  0
 20 81  1  0  0  0  0
 21 22  1  0  0  0  0
 21 82  1  0  0  0  0
 21 83  1  0  0  0  0
 22 23  1  0  0  0  0
 22 24  2  0  0  0  0
 23 84  1  0  0  0  0
 23 85  1  0  0  0  0
 23 86  1  0  0  0  0
 24 25  1  0  0  0  0
 24 87  1  0  0  0  0
 25 26  1  0  0  0  0
 25 88  1  0  0  0  0
 25 89  1  0  0  0  0
 26 27  1  0  0  0  0
 26 90  1  0  0  0  0
 26 91  1  0  0  0  0
 27 28  1  0  0  0  0
 27 29  2  0  0  0  0
 28 92  1  0  0  0  0
 28 93  1  0  0  0  0
 28 94  1  0  0  0  0
 29 30  1  0  0  0  0
 29 95  1  0  0  0  0
 30 31  1  0  0  0  0
 30 96  1  0  0  0  0
 30 97  1  0  0  0  0
 31 32  1  0  0  0  0
 31 98  1  0  0  0  0
 31 99  1  0  0  0  0
 32 33  1  0  0  0  0
 32 34  2  0  0  0  0
 33100  1  0  0  0  0
 33101  1  0  0  0  0
 33102  1  0  0  0  0
 34 35  1  0  0  0  0
 34103  1  0  0  0  0
 35 36  1  0  0  0  0
 35104  1  0  0  0  0
 35105  1  0  0  0  0
 36 37  1  0  0  0  0
 36106  1  0  0  0  0
 36107  1  0  0  0  0
 37 38  1  0  0  0  0
 37 39  2  0  0  0  0
 38108  1  0  0  0  0
 38109  1  0  0  0  0
 38110  1  0  0  0  0
 39 40  1  0  0  0  0
 39111  1  0  0  0  0
 40 41  1  0  0  0  0
 40112  1  0  0  0  0
 40113  1  0  0  0  0
 41 42  1  0  0  0  0
 41 47  2  0  0  0  0
 42 43  2  0  0  0  0
 42114  1  0  0  0  0
 43 44  1  0  0  0  0
 43115  1  0  0  0  0
 44 45  2  0  0  0  0
 44116  1  0  0  0  0
 45 46  1  0  0  0  0
 45 47  1  0  0  0  0
 46117  1  0  0  0  0
 47 48  1  0  0  0  0
 48118  1  0  0  0  0
M  END
$$$$
