CHEBI:5445
 OpenBabel04242411043D

 12 11  0  0  0  0  0  0  0  0999 V2000
    1.5005    0.2740   -0.7461 O   0  0  0  0  0  0  0  0  0  0  0  0
    1.7424    0.5321    0.4311 C   0  0  0  0  0  0  0  0  0  0  0  0
    3.1243    0.4512    1.0549 C   0  0  0  0  0  0  0  0  0  0  0  0
    3.0882   -0.4936    2.1224 O   0  0  0  0  0  0  0  0  0  0  0  0
    4.1765    0.0298    0.0297 C   0  0  0  0  0  0  0  0  0  0  0  0
    3.9295   -1.3177   -0.3877 O   0  0  0  0  0  0  0  0  0  0  0  0
    0.9388    0.8549    1.1153 H   0  0  0  0  0  0  0  0  0  0  0  0
    3.3635    1.4365    1.4663 H   0  0  0  0  0  0  0  0  0  0  0  0
    3.2506   -1.3664    1.7066 H   0  0  0  0  0  0  0  0  0  0  0  0
    5.1695    0.0378    0.4896 H   0  0  0  0  0  0  0  0  0  0  0  0
    4.1911    0.6808   -0.8503 H   0  0  0  0  0  0  0  0  0  0  0  0
    3.1575   -1.2760   -0.9902 H   0  0  0  0  0  0  0  0  0  0  0  0
  1  2  2  0  0  0  0
  2  3  1  0  0  0  0
  2  7  1  0  0  0  0
  3  4  1  0  0  0  0
  3  5  1  0  0  0  0
  3  8  1  0  0  0  0
  4  9  1  0  0  0  0
  5  6  1  0  0  0  0
  5 10  1  0  0  0  0
  5 11  1  0  0  0  0
  6 12  1  0  0  0  0
M  END
$$$$
