CHEBI:15491
 OpenBabel04242412113D

130132  0  0  1  0  0  0  0  0999 V2000
   47.0718  -16.9263    7.5891 C   0  0  0  0  0  0  0  0  0  0  0  0
   45.6471  -16.8106    8.0973 C   0  0  0  0  0  0  0  0  0  0  0  0
   45.1742  -17.2442    9.5149 C   0  0  0  0  0  0  0  0  0  0  0  0
   45.9364  -17.6961   10.8042 C   0  0  0  0  0  0  0  0  0  0  0  0
   47.2205  -17.1069   11.4760 C   0  0  0  0  0  0  0  0  0  0  0  0
   47.0644  -16.2263   12.7889 C   0  0  0  0  0  0  0  0  0  0  0  0
   48.0344  -14.9883   12.9783 C   0  0  0  0  0  0  0  0  0  0  0  0
   47.3271  -13.6009   13.1017 C   0  0  0  0  0  0  0  0  0  0  0  0
   48.0806  -12.3401   12.6126 C   0  0  0  0  0  0  0  0  0  0  0  0
   48.0022  -11.8994   11.1370 C   0  0  0  0  0  0  0  0  0  0  0  0
   48.8502  -12.6742   10.1478 C   0  0  0  0  0  0  0  0  0  0  0  0
   48.1910  -13.8607    9.4681 C   0  0  0  0  0  0  0  0  0  0  0  0
   46.8733  -14.4071    9.9716 C   0  0  0  0  0  0  0  0  0  0  0  0
   45.4620  -13.9144   10.2627 C   0  0  0  0  0  0  0  0  0  0  0  0
   44.8273  -14.4624   11.1775 O   0  0  0  0  0  0  0  0  0  0  0  0
   44.7343  -12.9315    9.4247 C   0  0  0  0  0  0  0  0  0  0  0  0
   43.8688  -13.5323    8.3477 C   0  0  0  0  0  0  0  0  0  0  0  0
   44.0958  -13.3217    7.1605 O   0  0  0  0  0  0  0  0  0  0  0  0
   42.4538  -14.4942    8.8329 S   0  0  0  0  0  0  0  0  0  0  0  0
   42.2628  -15.5223    7.3206 C   0  0  0  0  0  0  0  0  0  0  0  0
   41.2550  -16.6773    7.4654 C   0  0  0  0  0  0  0  0  0  0  0  0
   41.1901  -17.5434    6.2762 N   0  0  0  0  0  0  0  0  0  0  0  0
   42.0602  -18.5951    6.0695 C   0  0  0  0  0  0  0  0  0  0  0  0
   42.9619  -18.8729    6.8552 O   0  0  0  0  0  0  0  0  0  0  0  0
   41.8539  -19.3946    4.7864 C   0  0  0  0  0  0  0  0  0  0  0  0
   41.2188  -20.7645    5.0461 C   0  0  0  0  0  0  0  0  0  0  0  0
   41.2310  -21.6352    3.8674 N   0  0  0  0  0  0  0  0  0  0  0  0
   40.5887  -22.8706    3.8138 C   0  0  0  0  0  0  0  0  0  0  0  0
   39.8640  -23.2923    4.7173 O   0  0  0  0  0  0  0  0  0  0  0  0
   40.9116  -23.6652    2.5119 C   0  0  2  0  0  0  0  0  0  0  0  0
   41.0030  -22.6961    1.4466 O   0  0  0  0  0  0  0  0  0  0  0  0
   39.9888  -24.8734    2.0879 C   0  0  0  0  0  0  0  0  0  0  0  0
   38.5093  -24.4509    2.0782 C   0  0  0  0  0  0  0  0  0  0  0  0
   40.3757  -25.2995    0.6495 C   0  0  0  0  0  0  0  0  0  0  0  0
   40.1911  -26.0864    3.0436 C   0  0  0  0  0  0  0  0  0  0  0  0
   39.7701  -27.3641    2.5539 O   0  0  0  0  0  0  0  0  0  0  0  0
   38.2505  -27.8631    2.6865 P   0  0  0  0  0  0  0  0  0  0  0  0
   37.3975  -27.2477    3.7390 O   0  0  0  0  0  0  0  0  0  0  0  0
   37.6816  -27.5506    1.2138 O   0  0  0  0  0  0  0  0  0  0  0  0
   38.2661  -29.4419    2.5958 O   0  0  0  0  0  0  0  0  0  0  0  0
   38.6099  -30.5255    3.6871 P   0  0  0  0  0  0  0  0  0  0  0  0
   37.8244  -30.5548    4.9552 O   0  0  0  0  0  0  0  0  0  0  0  0
   38.2805  -31.8868    2.8926 O   0  0  0  0  0  0  0  0  0  0  0  0
   40.2077  -30.6186    3.7847 O   0  0  0  0  0  0  0  0  0  0  0  0
   40.8208  -30.4920    5.0561 C   0  0  0  0  0  0  0  0  0  0  0  0
   40.8534  -29.0245    5.4826 C   0  0  1  0  0  0  0  0  0  0  0  0
   39.5279  -28.5625    5.7337 O   0  0  0  0  0  0  0  0  0  0  0  0
   39.5905  -27.5142    6.7195 C   0  0  1  0  0  0  0  0  0  0  0  0
   38.4076  -27.6166    7.5495 N   0  0  0  0  0  0  0  0  0  0  0  0
   38.0401  -28.6765    8.3378 C   0  0  0  0  0  0  0  0  0  0  0  0
   36.9422  -28.4280    9.0230 N   0  0  0  0  0  0  0  0  0  0  0  0
   36.5300  -27.1855    8.5805 C   0  0  0  0  0  0  0  0  0  0  0  0
   35.4167  -26.3841    8.8898 C   0  0  0  0  0  0  0  0  0  0  0  0
   34.4401  -26.7527    9.8097 N   0  0  0  0  0  0  0  0  0  0  0  0
   35.2958  -25.1799    8.2851 N   0  0  0  0  0  0  0  0  0  0  0  0
   36.2500  -24.8109    7.4016 C   0  0  0  0  0  0  0  0  0  0  0  0
   37.3664  -25.4752    7.0534 N   0  0  0  0  0  0  0  0  0  0  0  0
   37.4354  -26.6629    7.6718 C   0  0  0  0  0  0  0  0  0  0  0  0
   40.9245  -27.6604    7.4849 C   0  0  2  0  0  0  0  0  0  0  0  0
   41.6810  -26.4556    7.4682 O   0  0  0  0  0  0  0  0  0  0  0  0
   41.6222  -28.8214    6.7766 C   0  0  2  0  0  0  0  0  0  0  0  0
   43.0222  -28.7436    6.5971 O   0  0  0  0  0  0  0  0  0  0  0  0
   43.7236  -27.5552    5.7891 P   0  0  0  0  0  0  0  0  0  0  0  0
   42.9122  -26.7734    4.8212 O   0  0  0  0  0  0  0  0  0  0  0  0
   44.4314  -26.6654    6.9063 O   0  0  0  0  0  0  0  0  0  0  0  0
   44.9618  -28.2600    5.0738 O   0  0  0  0  0  0  0  0  0  0  0  0
   47.6490  -17.6954    8.0956 H   0  0  0  0  0  0  0  0  0  0  0  0
   47.6018  -15.9696    7.6533 H   0  0  0  0  0  0  0  0  0  0  0  0
   47.0500  -17.1410    6.5119 H   0  0  0  0  0  0  0  0  0  0  0  0
   45.0167  -17.3413    7.3727 H   0  0  0  0  0  0  0  0  0  0  0  0
   45.3474  -15.7654    7.9435 H   0  0  0  0  0  0  0  0  0  0  0  0
   44.5266  -18.1088    9.2956 H   0  0  0  0  0  0  0  0  0  0  0  0
   44.4403  -16.4957    9.8298 H   0  0  0  0  0  0  0  0  0  0  0  0
   46.1570  -18.7564   10.6256 H   0  0  0  0  0  0  0  0  0  0  0  0
   45.1630  -17.7066   11.5876 H   0  0  0  0  0  0  0  0  0  0  0  0
   47.9191  -16.6977   10.7459 H   0  0  0  0  0  0  0  0  0  0  0  0
   47.7447  -18.0027   11.8460 H   0  0  0  0  0  0  0  0  0  0  0  0
   47.2954  -16.9009   13.6277 H   0  0  0  0  0  0  0  0  0  0  0  0
   46.0234  -15.9276   12.9446 H   0  0  0  0  0  0  0  0  0  0  0  0
   48.8121  -14.9772   12.2088 H   0  0  0  0  0  0  0  0  0  0  0  0
   48.5709  -15.1317   13.9267 H   0  0  0  0  0  0  0  0  0  0  0  0
   46.3306  -13.6015   12.6690 H   0  0  0  0  0  0  0  0  0  0  0  0
   47.1408  -13.4450   14.1734 H   0  0  0  0  0  0  0  0  0  0  0  0
   49.1249  -12.3701   12.9383 H   0  0  0  0  0  0  0  0  0  0  0  0
   47.6229  -11.4990   13.1548 H   0  0  0  0  0  0  0  0  0  0  0  0
   48.3857  -10.8690   11.1021 H   0  0  0  0  0  0  0  0  0  0  0  0
   46.9698  -11.8156   10.7929 H   0  0  0  0  0  0  0  0  0  0  0  0
   49.7947  -12.9775   10.6219 H   0  0  0  0  0  0  0  0  0  0  0  0
   49.1582  -11.9975    9.3382 H   0  0  0  0  0  0  0  0  0  0  0  0
   48.9155  -14.6868    9.6135 H   0  0  0  0  0  0  0  0  0  0  0  0
   48.1755  -13.7313    8.3824 H   0  0  0  0  0  0  0  0  0  0  0  0
   47.1496  -14.7569   10.9385 H   0  0  0  0  0  0  0  0  0  0  0  0
   46.7336  -15.3057    9.4107 H   0  0  0  0  0  0  0  0  0  0  0  0
   45.4538  -12.2354    8.9894 H   0  0  0  0  0  0  0  0  0  0  0  0
   44.1040  -12.3417   10.1040 H   0  0  0  0  0  0  0  0  0  0  0  0
   43.2373  -15.9299    7.0526 H   0  0  0  0  0  0  0  0  0  0  0  0
   41.9484  -14.8638    6.5050 H   0  0  0  0  0  0  0  0  0  0  0  0
   40.2444  -16.2792    7.6116 H   0  0  0  0  0  0  0  0  0  0  0  0
   41.5030  -17.3055    8.3284 H   0  0  0  0  0  0  0  0  0  0  0  0
   40.4346  -17.3908    5.6200 H   0  0  0  0  0  0  0  0  0  0  0  0
   42.8436  -19.5185    4.3268 H   0  0  0  0  0  0  0  0  0  0  0  0
   41.2568  -18.8206    4.0691 H   0  0  0  0  0  0  0  0  0  0  0  0
   40.1778  -20.6434    5.3663 H   0  0  0  0  0  0  0  0  0  0  0  0
   41.7443  -21.2939    5.8484 H   0  0  0  0  0  0  0  0  0  0  0  0
   41.9157  -21.4724    3.1327 H   0  0  0  0  0  0  0  0  0  0  0  0
   41.9331  -24.0450    2.6459 H   0  0  0  0  0  0  0  0  0  0  0  0
   40.1221  -22.2884    1.3640 H   0  0  0  0  0  0  0  0  0  0  0  0
   38.3648  -23.4845    1.5867 H   0  0  0  0  0  0  0  0  0  0  0  0
   38.1077  -24.3735    3.0935 H   0  0  0  0  0  0  0  0  0  0  0  0
   37.8871  -25.1668    1.5377 H   0  0  0  0  0  0  0  0  0  0  0  0
   40.1421  -24.5161   -0.0799 H   0  0  0  0  0  0  0  0  0  0  0  0
   39.8396  -26.1973    0.3262 H   0  0  0  0  0  0  0  0  0  0  0  0
   41.4483  -25.5147    0.5812 H   0  0  0  0  0  0  0  0  0  0  0  0
   39.7516  -25.9068    4.0270 H   0  0  0  0  0  0  0  0  0  0  0  0
   41.2662  -26.2009    3.1919 H   0  0  0  0  0  0  0  0  0  0  0  0
   36.7413  -27.7944    1.1527 H   0  0  0  0  0  0  0  0  0  0  0  0
   37.5098  -32.3145    3.3123 H   0  0  0  0  0  0  0  0  0  0  0  0
   41.8401  -30.8806    4.9630 H   0  0  0  0  0  0  0  0  0  0  0  0
   40.2855  -31.1172    5.7792 H   0  0  0  0  0  0  0  0  0  0  0  0
   41.2467  -28.4384    4.6515 H   0  0  0  0  0  0  0  0  0  0  0  0
   39.5550  -26.5573    6.1906 H   0  0  0  0  0  0  0  0  0  0  0  0
   38.6054  -29.5982    8.3802 H   0  0  0  0  0  0  0  0  0  0  0  0
   34.7634  -27.4525   10.4677 H   0  0  0  0  0  0  0  0  0  0  0  0
   33.9584  -25.9442   10.1797 H   0  0  0  0  0  0  0  0  0  0  0  0
   36.0995  -23.8527    6.9131 H   0  0  0  0  0  0  0  0  0  0  0  0
   40.7616  -27.9034    8.5410 H   0  0  0  0  0  0  0  0  0  0  0  0
   42.4662  -26.5810    8.0373 H   0  0  0  0  0  0  0  0  0  0  0  0
   41.4509  -29.7053    7.4058 H   0  0  0  0  0  0  0  0  0  0  0  0
   44.7285  -25.8172    6.5274 H   0  0  0  0  0  0  0  0  0  0  0  0
   44.7437  -28.5018    4.1540 H   0  0  0  0  0  0  0  0  0  0  0  0
  1  2  1  0  0  0  0
  1 67  1  0  0  0  0
  1 68  1  0  0  0  0
  1 69  1  0  0  0  0
  2  3  1  0  0  0  0
  2 70  1  0  0  0  0
  2 71  1  0  0  0  0
  3  4  1  0  0  0  0
  3 72  1  0  0  0  0
  3 73  1  0  0  0  0
  4  5  1  0  0  0  0
  4 74  1  0  0  0  0
  4 75  1  0  0  0  0
  5  6  1  0  0  0  0
  5 76  1  0  0  0  0
  5 77  1  0  0  0  0
  6  7  1  0  0  0  0
  6 78  1  0  0  0  0
  6 79  1  0  0  0  0
  7  8  1  0  0  0  0
  7 80  1  0  0  0  0
  7 81  1  0  0  0  0
  8  9  1  0  0  0  0
  8 82  1  0  0  0  0
  8 83  1  0  0  0  0
  9 10  1  0  0  0  0
  9 84  1  0  0  0  0
  9 85  1  0  0  0  0
 10 11  1  0  0  0  0
 10 86  1  0  0  0  0
 10 87  1  0  0  0  0
 11 12  1  0  0  0  0
 11 88  1  0  0  0  0
 11 89  1  0  0  0  0
 12 13  1  0  0  0  0
 12 90  1  0  0  0  0
 12 91  1  0  0  0  0
 13 14  1  0  0  0  0
 13 92  1  0  0  0  0
 13 93  1  0  0  0  0
 14 15  2  0  0  0  0
 14 16  1  0  0  0  0
 16 17  1  0  0  0  0
 16 94  1  0  0  0  0
 16 95  1  0  0  0  0
 17 18  2  0  0  0  0
 17 19  1  0  0  0  0
 19 20  1  0  0  0  0
 20 21  1  0  0  0  0
 20 96  1  0  0  0  0
 20 97  1  0  0  0  0
 21 22  1  0  0  0  0
 21 98  1  0  0  0  0
 21 99  1  0  0  0  0
 22 23  1  0  0  0  0
 22100  1  0  0  0  0
 23 24  2  0  0  0  0
 23 25  1  0  0  0  0
 25 26  1  0  0  0  0
 25101  1  0  0  0  0
 25102  1  0  0  0  0
 26 27  1  0  0  0  0
 26103  1  0  0  0  0
 26104  1  0  0  0  0
 27 28  1  0  0  0  0
 27105  1  0  0  0  0
 28 29  2  0  0  0  0
 30 32  1  0  0  0  0
 30 31  1  0  0  0  0
 30 28  1  0  0  0  0
 30106  1  1  0  0  0
 31107  1  0  0  0  0
 32 33  1  0  0  0  0
 32 34  1  0  0  0  0
 32 35  1  0  0  0  0
 33108  1  0  0  0  0
 33109  1  0  0  0  0
 33110  1  0  0  0  0
 34111  1  0  0  0  0
 34112  1  0  0  0  0
 34113  1  0  0  0  0
 35 36  1  0  0  0  0
 35114  1  0  0  0  0
 35115  1  0  0  0  0
 36 37  1  0  0  0  0
 37 38  2  0  0  0  0
 37 39  1  0  0  0  0
 37 40  1  0  0  0  0
 39116  1  0  0  0  0
 40 41  1  0  0  0  0
 41 42  2  0  0  0  0
 41 43  1  0  0  0  0
 41 44  1  0  0  0  0
 43117  1  0  0  0  0
 44 45  1  0  0  0  0
 45118  1  0  0  0  0
 45119  1  0  0  0  0
 46 47  1  0  0  0  0
 46 61  1  0  0  0  0
 46 45  1  0  0  0  0
 46120  1  6  0  0  0
 47 48  1  0  0  0  0
 48 59  1  0  0  0  0
 48 49  1  0  0  0  0
 48121  1  6  0  0  0
 49 50  1  0  0  0  0
 49 58  1  0  0  0  0
 50 51  2  0  0  0  0
 50122  1  0  0  0  0
 51 52  1  0  0  0  0
 52 53  1  0  0  0  0
 52 58  2  0  0  0  0
 53 54  1  0  0  0  0
 53 55  2  0  0  0  0
 54123  1  0  0  0  0
 54124  1  0  0  0  0
 55 56  1  0  0  0  0
 56 57  2  0  0  0  0
 56125  1  0  0  0  0
 57 58  1  0  0  0  0
 59 60  1  0  0  0  0
 59 61  1  0  0  0  0
 59126  1  1  0  0  0
 60127  1  0  0  0  0
 61 62  1  0  0  0  0
 61128  1  1  0  0  0
 62 63  1  0  0  0  0
 63 64  2  0  0  0  0
 63 65  1  0  0  0  0
 63 66  1  0  0  0  0
 65129  1  0  0  0  0
 66130  1  0  0  0  0
M  END
$$$$
