CHEBI:18009
 OpenBabel04242423243D

 77 81  0  0  1  0  0  0  0  0999 V2000
    7.7905   -9.4509    0.8689 N   0  0  0  0  0  0  0  0  0  0  0  0
    7.9409   -8.7839   -0.3109 C   0  0  0  0  0  0  0  0  0  0  0  0
    7.2410   -7.8218   -0.6008 O   0  0  0  0  0  0  0  0  0  0  0  0
    8.9470   -9.2754   -1.2814 C   0  0  0  0  0  0  0  0  0  0  0  0
    9.8779  -10.2784   -1.0206 C   0  0  0  0  0  0  0  0  0  0  0  0
   10.7365  -10.6888   -2.0377 C   0  0  0  0  0  0  0  0  0  0  0  0
   10.6427  -10.1040   -3.2974 C   0  0  0  0  0  0  0  0  0  0  0  0
    9.7446   -9.1203   -3.5339 N   0  3  0  0  0  0  0  0  0  0  0  0
    9.6649   -8.5182   -4.8872 C   0  0  2  0  0  0  0  0  0  0  0  0
    9.8805   -7.1066   -4.8223 O   0  0  0  0  0  0  0  0  0  0  0  0
    9.0977   -6.4992   -5.8893 C   0  0  2  0  0  0  0  0  0  0  0  0
    8.2027   -5.4212   -5.2726 C   0  0  0  0  0  0  0  0  0  0  0  0
    7.2194   -6.0353   -4.4575 O   0  0  0  0  0  0  0  0  0  0  0  0
    6.3184   -5.0692   -3.5272 P   0  0  0  0  0  0  0  0  0  0  0  0
    7.0502   -4.3927   -2.4234 O   0  0  0  0  0  0  0  0  0  0  0  0
    5.5933   -4.1214   -4.5903 O   0  0  0  0  0  0  0  0  0  0  0  0
    5.1657   -6.0747   -3.1028 O   0  0  0  0  0  0  0  0  0  0  0  0
    4.2601   -5.7042   -1.6761 P   0  0  0  0  0  0  0  0  0  0  0  0
    3.5174   -4.6304   -2.4809 O   0  0  0  0  0  0  0  0  0  0  0  0
    3.4356   -7.0968   -1.9122 O   0  0  0  0  0  0  0  0  0  0  0  0
    3.3545   -5.3337   -0.2493 O   0  0  0  0  0  0  0  0  0  0  0  0
    1.9401   -5.5447   -0.2844 C   0  0  0  0  0  0  0  0  0  0  0  0
    1.2736   -5.0029    0.9700 C   0  0  1  0  0  0  0  0  0  0  0  0
    1.6409   -5.7869    2.1268 O   0  0  0  0  0  0  0  0  0  0  0  0
    1.8637   -4.8684    3.2291 C   0  0  1  0  0  0  0  0  0  0  0  0
    3.2811   -4.8831    3.5491 N   0  0  0  0  0  0  0  0  0  0  0  0
    4.2634   -5.6275    2.9459 C   0  0  0  0  0  0  0  0  0  0  0  0
    5.4512   -5.4052    3.4689 N   0  0  0  0  0  0  0  0  0  0  0  0
    5.2162   -4.5147    4.4957 C   0  0  0  0  0  0  0  0  0  0  0  0
    6.0646   -3.9045    5.4336 C   0  0  0  0  0  0  0  0  0  0  0  0
    7.4368   -4.1230    5.4737 N   0  0  0  0  0  0  0  0  0  0  0  0
    5.5249   -3.0445    6.3262 N   0  0  0  0  0  0  0  0  0  0  0  0
    4.1912   -2.8274    6.2857 C   0  0  0  0  0  0  0  0  0  0  0  0
    3.2838   -3.3447    5.4300 N   0  0  0  0  0  0  0  0  0  0  0  0
    3.8724   -4.1825    4.5633 C   0  0  0  0  0  0  0  0  0  0  0  0
    1.3109   -3.5080    2.7720 C   0  0  2  0  0  0  0  0  0  0  0  0
   -0.1115   -3.5055    2.9336 O   0  0  0  0  0  0  0  0  0  0  0  0
   -0.8547   -2.1284    3.2469 P   0  0  0  0  0  0  0  0  0  0  0  0
   -0.8414   -1.6523    4.6519 O   0  0  0  0  0  0  0  0  0  0  0  0
   -0.2566   -1.0940    2.1831 O   0  0  0  0  0  0  0  0  0  0  0  0
   -2.3086   -2.3796    2.6452 O   0  0  0  0  0  0  0  0  0  0  0  0
    1.6376   -3.5579    1.2851 C   0  0  2  0  0  0  0  0  0  0  0  0
    0.9189   -2.6640    0.4523 O   0  0  0  0  0  0  0  0  0  0  0  0
    8.3266   -7.6370   -6.5822 C   0  0  1  0  0  0  0  0  0  0  0  0
    9.0862   -8.1599   -7.6849 O   0  0  0  0  0  0  0  0  0  0  0  0
    8.2982   -8.7349   -5.5299 C   0  0  1  0  0  0  0  0  0  0  0  0
    8.1593  -10.0433   -6.0767 O   0  0  0  0  0  0  0  0  0  0  0  0
    8.9283   -8.6848   -2.5445 C   0  0  0  0  0  0  0  0  0  0  0  0
    8.2479  -10.3114    1.1322 H   0  0  0  0  0  0  0  0  0  0  0  0
    7.0774   -9.1105    1.5071 H   0  0  0  0  0  0  0  0  0  0  0  0
    9.9624  -10.7459   -0.0432 H   0  0  0  0  0  0  0  0  0  0  0  0
   11.4742  -11.4682   -1.8522 H   0  0  0  0  0  0  0  0  0  0  0  0
   11.2888  -10.4151   -4.1145 H   0  0  0  0  0  0  0  0  0  0  0  0
   10.4635   -8.9596   -5.4968 H   0  0  0  0  0  0  0  0  0  0  0  0
    9.8094   -6.0287   -6.5767 H   0  0  0  0  0  0  0  0  0  0  0  0
    7.7037   -4.8530   -6.0635 H   0  0  0  0  0  0  0  0  0  0  0  0
    8.8014   -4.7411   -4.6579 H   0  0  0  0  0  0  0  0  0  0  0  0
    4.8366   -3.6494   -4.1778 H   0  0  0  0  0  0  0  0  0  0  0  0
    2.6996   -6.9267   -2.5297 H   0  0  0  0  0  0  0  0  0  0  0  0
    1.7507   -6.6216   -0.3323 H   0  0  0  0  0  0  0  0  0  0  0  0
    1.5120   -5.0626   -1.1678 H   0  0  0  0  0  0  0  0  0  0  0  0
    0.1886   -5.1129    0.8441 H   0  0  0  0  0  0  0  0  0  0  0  0
    1.3322   -5.2636    4.1021 H   0  0  0  0  0  0  0  0  0  0  0  0
    4.0603   -6.3124    2.1320 H   0  0  0  0  0  0  0  0  0  0  0  0
    7.8133   -4.4537    4.5929 H   0  0  0  0  0  0  0  0  0  0  0  0
    7.9224   -3.3646    5.9354 H   0  0  0  0  0  0  0  0  0  0  0  0
    3.8023   -2.1450    7.0369 H   0  0  0  0  0  0  0  0  0  0  0  0
    1.7444   -2.6432    3.2819 H   0  0  0  0  0  0  0  0  0  0  0  0
   -0.7249   -0.2384    2.2561 H   0  0  0  0  0  0  0  0  0  0  0  0
   -2.8639   -2.9132    3.2429 H   0  0  0  0  0  0  0  0  0  0  0  0
    2.7074   -3.3660    1.1461 H   0  0  0  0  0  0  0  0  0  0  0  0
    0.6324   -1.8941    0.9884 H   0  0  0  0  0  0  0  0  0  0  0  0
    7.3359   -7.3653   -6.9576 H   0  0  0  0  0  0  0  0  0  0  0  0
    8.9832   -7.5455   -8.4394 H   0  0  0  0  0  0  0  0  0  0  0  0
    7.4755   -8.5703   -4.8288 H   0  0  0  0  0  0  0  0  0  0  0  0
    8.3415   -9.9673   -7.0388 H   0  0  0  0  0  0  0  0  0  0  0  0
    8.2506   -7.8710   -2.7847 H   0  0  0  0  0  0  0  0  0  0  0  0
  1  2  1  0  0  0  0
  1 49  1  0  0  0  0
  1 50  1  0  0  0  0
  2  3  2  0  0  0  0
  2  4  1  0  0  0  0
  4  5  1  0  0  0  0
  4 48  2  0  0  0  0
  5  6  2  0  0  0  0
  5 51  1  0  0  0  0
  6  7  1  0  0  0  0
  6 52  1  0  0  0  0
  7  8  2  0  0  0  0
  7 53  1  0  0  0  0
  8  9  1  0  0  0  0
  8 48  1  0  0  0  0
  9 10  1  0  0  0  0
  9 46  1  0  0  0  0
  9 54  1  6  0  0  0
 10 11  1  0  0  0  0
 11 12  1  0  0  0  0
 11 44  1  0  0  0  0
 11 55  1  6  0  0  0
 12 13  1  0  0  0  0
 12 56  1  0  0  0  0
 12 57  1  0  0  0  0
 13 14  1  0  0  0  0
 14 15  2  0  0  0  0
 14 16  1  0  0  0  0
 14 17  1  0  0  0  0
 16 58  1  0  0  0  0
 17 18  1  0  0  0  0
 18 19  2  0  0  0  0
 18 20  1  0  0  0  0
 18 21  1  0  0  0  0
 20 59  1  0  0  0  0
 21 22  1  0  0  0  0
 22 23  1  0  0  0  0
 22 60  1  0  0  0  0
 22 61  1  0  0  0  0
 23 24  1  0  0  0  0
 23 42  1  0  0  0  0
 23 62  1  6  0  0  0
 24 25  1  0  0  0  0
 25 26  1  0  0  0  0
 25 36  1  0  0  0  0
 25 63  1  1  0  0  0
 26 27  1  0  0  0  0
 26 35  1  0  0  0  0
 27 28  2  0  0  0  0
 27 64  1  0  0  0  0
 28 29  1  0  0  0  0
 29 30  1  0  0  0  0
 29 35  2  0  0  0  0
 30 31  1  0  0  0  0
 30 32  2  0  0  0  0
 31 65  1  0  0  0  0
 31 66  1  0  0  0  0
 32 33  1  0  0  0  0
 33 34  2  0  0  0  0
 33 67  1  0  0  0  0
 34 35  1  0  0  0  0
 36 37  1  0  0  0  0
 36 42  1  0  0  0  0
 36 68  1  1  0  0  0
 37 38  1  0  0  0  0
 38 39  2  0  0  0  0
 38 40  1  0  0  0  0
 38 41  1  0  0  0  0
 40 69  1  0  0  0  0
 41 70  1  0  0  0  0
 42 43  1  0  0  0  0
 42 71  1  6  0  0  0
 43 72  1  0  0  0  0
 44 45  1  0  0  0  0
 44 46  1  0  0  0  0
 44 73  1  6  0  0  0
 45 74  1  0  0  0  0
 46 47  1  0  0  0  0
 46 75  1  1  0  0  0
 47 76  1  0  0  0  0
 48 77  1  0  0  0  0
M  CHG  1   8   1
M  END
$$$$
