CHEBI:17401
 OpenBabel04242416293D

 54 54  0  0  1  0  0  0  0  0999 V2000
    8.0191    2.7006   -6.4287 O   0  0  0  0  0  0  0  0  0  0  0  0
    7.5707    4.1065   -6.2250 P   0  0  0  0  0  0  0  0  0  0  0  0
    8.7172    5.0773   -5.6923 O   0  0  0  0  0  0  0  0  0  0  0  0
    7.0653    4.8913   -7.5172 O   0  0  0  0  0  0  0  0  0  0  0  0
    6.4041    4.2982   -5.1553 O   0  0  0  0  0  0  0  0  0  0  0  0
    5.3148    3.3818   -5.1214 C   0  0  1  0  0  0  0  0  0  0  0  0
    4.9703    3.1557   -3.6400 C   0  0  2  0  0  0  0  0  0  0  0  0
    4.1111    2.0363   -3.4915 O   0  0  0  0  0  0  0  0  0  0  0  0
    4.6733    0.5765   -3.1653 P   0  0  0  0  0  0  0  0  0  0  0  0
    3.6985   -0.3949   -2.5999 O   0  0  0  0  0  0  0  0  0  0  0  0
    5.8861    0.7968   -2.1457 O   0  0  0  0  0  0  0  0  0  0  0  0
    5.4494    0.0818   -4.4605 O   0  0  0  0  0  0  0  0  0  0  0  0
    4.2864    4.3877   -2.9881 C   0  0  1  0  0  0  0  0  0  0  0  0
    5.1727    5.4846   -2.7915 O   0  0  0  0  0  0  0  0  0  0  0  0
    6.4474    5.3992   -1.8415 P   0  0  0  0  0  0  0  0  0  0  0  0
    7.6388    4.6669   -2.3505 O   0  0  0  0  0  0  0  0  0  0  0  0
    6.7249    6.9372   -1.5156 O   0  0  0  0  0  0  0  0  0  0  0  0
    5.8954    4.8580   -0.4503 O   0  0  0  0  0  0  0  0  0  0  0  0
    3.1098    4.9378   -3.8320 C   0  0  2  0  0  0  0  0  0  0  0  0
    2.0038    4.0431   -3.7976 O   0  0  0  0  0  0  0  0  0  0  0  0
    0.5453    4.6802   -3.9854 P   0  0  0  0  0  0  0  0  0  0  0  0
    0.3105    5.3857   -5.2748 O   0  0  0  0  0  0  0  0  0  0  0  0
    0.3284    5.6137   -2.7131 O   0  0  0  0  0  0  0  0  0  0  0  0
   -0.4798    3.4887   -3.7386 O   0  0  0  0  0  0  0  0  0  0  0  0
    3.5379    5.2011   -5.2880 C   0  0  1  0  0  0  0  0  0  0  0  0
    4.5505    6.1996   -5.3639 O   0  0  0  0  0  0  0  0  0  0  0  0
    4.1797    7.7345   -5.1617 P   0  0  0  0  0  0  0  0  0  0  0  0
    2.8499    8.0590   -4.5826 O   0  0  0  0  0  0  0  0  0  0  0  0
    5.4313    8.2703   -4.3322 O   0  0  0  0  0  0  0  0  0  0  0  0
    4.4675    8.3535   -6.6035 O   0  0  0  0  0  0  0  0  0  0  0  0
    4.0980    3.9094   -5.8998 C   0  0  1  0  0  0  0  0  0  0  0  0
    4.4867    4.2093   -7.2323 O   0  0  0  0  0  0  0  0  0  0  0  0
    3.7588    3.4703   -8.4376 P   0  0  0  0  0  0  0  0  0  0  0  0
    3.9861    2.0064   -8.5642 O   0  0  0  0  0  0  0  0  0  0  0  0
    2.2440    3.9467   -8.3055 O   0  0  0  0  0  0  0  0  0  0  0  0
    4.2316    4.3233   -9.6989 O   0  0  0  0  0  0  0  0  0  0  0  0
    9.2128    4.6618   -4.9621 H   0  0  0  0  0  0  0  0  0  0  0  0
    6.7710    5.7894   -7.2686 H   0  0  0  0  0  0  0  0  0  0  0  0
    5.6289    2.4399   -5.5804 H   0  0  0  0  0  0  0  0  0  0  0  0
    5.9017    2.9668   -3.1004 H   0  0  0  0  0  0  0  0  0  0  0  0
    5.9892   -0.0184   -1.6136 H   0  0  0  0  0  0  0  0  0  0  0  0
    6.2929    0.5276   -4.6546 H   0  0  0  0  0  0  0  0  0  0  0  0
    3.8862    4.0892   -2.0110 H   0  0  0  0  0  0  0  0  0  0  0  0
    7.5268    7.0481   -0.9724 H   0  0  0  0  0  0  0  0  0  0  0  0
    6.0139    3.8948   -0.3490 H   0  0  0  0  0  0  0  0  0  0  0  0
    2.8084    5.8836   -3.3703 H   0  0  0  0  0  0  0  0  0  0  0  0
   -0.2792    6.3470   -2.9219 H   0  0  0  0  0  0  0  0  0  0  0  0
   -0.7420    3.0634   -4.5757 H   0  0  0  0  0  0  0  0  0  0  0  0
    2.6984    5.5336   -5.9047 H   0  0  0  0  0  0  0  0  0  0  0  0
    5.4575    7.9051   -3.4242 H   0  0  0  0  0  0  0  0  0  0  0  0
    4.3373    9.3184   -6.6000 H   0  0  0  0  0  0  0  0  0  0  0  0
    3.3201    3.1352   -5.9074 H   0  0  0  0  0  0  0  0  0  0  0  0
    2.1473    4.8755   -8.5857 H   0  0  0  0  0  0  0  0  0  0  0  0
    5.1699    4.1385   -9.8990 H   0  0  0  0  0  0  0  0  0  0  0  0
  1  2  2  0  0  0  0
  2  3  1  0  0  0  0
  2  4  1  0  0  0  0
  2  5  1  0  0  0  0
  3 37  1  0  0  0  0
  4 38  1  0  0  0  0
  6  7  1  0  0  0  0
  6 31  1  0  0  0  0
  6  5  1  0  0  0  0
  6 39  1  6  0  0  0
  7 13  1  0  0  0  0
  7  8  1  0  0  0  0
  7 40  1  1  0  0  0
  8  9  1  0  0  0  0
  9 10  2  0  0  0  0
  9 11  1  0  0  0  0
  9 12  1  0  0  0  0
 11 41  1  0  0  0  0
 12 42  1  0  0  0  0
 13 14  1  0  0  0  0
 13 19  1  0  0  0  0
 13 43  1  1  0  0  0
 14 15  1  0  0  0  0
 15 16  2  0  0  0  0
 15 17  1  0  0  0  0
 15 18  1  0  0  0  0
 17 44  1  0  0  0  0
 18 45  1  0  0  0  0
 19 25  1  0  0  0  0
 19 20  1  0  0  0  0
 19 46  1  1  0  0  0
 20 21  1  0  0  0  0
 21 22  2  0  0  0  0
 21 23  1  0  0  0  0
 21 24  1  0  0  0  0
 23 47  1  0  0  0  0
 24 48  1  0  0  0  0
 25 26  1  0  0  0  0
 25 31  1  0  0  0  0
 25 49  1  6  0  0  0
 26 27  1  0  0  0  0
 27 28  2  0  0  0  0
 27 29  1  0  0  0  0
 27 30  1  0  0  0  0
 29 50  1  0  0  0  0
 30 51  1  0  0  0  0
 31 32  1  0  0  0  0
 31 52  1  6  0  0  0
 32 33  1  0  0  0  0
 33 34  2  0  0  0  0
 33 35  1  0  0  0  0
 33 36  1  0  0  0  0
 35 53  1  0  0  0  0
 36 54  1  0  0  0  0
M  END
$$$$
