CHEBI:16641
 OpenBabel04242414583D

 27 26  0  0  1  0  0  0  0  0999 V2000
    0.2490   -0.9268   -1.9917 C   0  0  0  0  0  0  0  0  0  0  0  0
    1.5943   -0.3265   -2.3705 C   0  0  0  0  0  0  0  0  0  0  0  0
    2.6623   -0.6508   -1.3270 C   0  0  0  0  0  0  0  0  0  0  0  0
    4.0222    0.0004   -1.6169 C   0  0  1  0  0  0  0  0  0  0  0  0
    4.9126   -0.2855   -0.5356 O   0  0  0  0  0  0  0  0  0  0  0  0
    4.6771   -0.3802   -2.9461 C   0  0  0  0  0  0  0  0  0  0  0  0
    4.8900   -1.8668   -3.0784 C   0  0  0  0  0  0  0  0  0  0  0  0
    5.0722   -2.6263   -2.1349 O   0  0  0  0  0  0  0  0  0  0  0  0
    4.8955   -2.2241   -4.3917 O   0  0  0  0  0  0  0  0  0  0  0  0
    5.1139   -3.6175   -4.6596 C   0  0  0  0  0  0  0  0  0  0  0  0
    6.6007   -3.9130   -4.7221 C   0  0  0  0  0  0  0  0  0  0  0  0
   -0.5034   -0.6764   -2.7461 H   0  0  0  0  0  0  0  0  0  0  0  0
   -0.0961   -0.5418   -1.0269 H   0  0  0  0  0  0  0  0  0  0  0  0
    0.3124   -2.0176   -1.9243 H   0  0  0  0  0  0  0  0  0  0  0  0
    1.4884    0.7600   -2.4686 H   0  0  0  0  0  0  0  0  0  0  0  0
    1.8867   -0.7173   -3.3508 H   0  0  0  0  0  0  0  0  0  0  0  0
    2.7715   -1.7375   -1.2284 H   0  0  0  0  0  0  0  0  0  0  0  0
    2.3228   -0.3106   -0.3394 H   0  0  0  0  0  0  0  0  0  0  0  0
    3.8881    1.0887   -1.6122 H   0  0  0  0  0  0  0  0  0  0  0  0
    5.0630   -1.2534   -0.5308 H   0  0  0  0  0  0  0  0  0  0  0  0
    5.6644    0.0889   -3.0266 H   0  0  0  0  0  0  0  0  0  0  0  0
    4.0594   -0.0272   -3.7785 H   0  0  0  0  0  0  0  0  0  0  0  0
    4.6546   -3.8326   -5.6299 H   0  0  0  0  0  0  0  0  0  0  0  0
    4.6099   -4.2481   -3.9181 H   0  0  0  0  0  0  0  0  0  0  0  0
    7.0864   -3.2825   -5.4740 H   0  0  0  0  0  0  0  0  0  0  0  0
    6.7771   -4.9625   -4.9743 H   0  0  0  0  0  0  0  0  0  0  0  0
    7.0856   -3.6975   -3.7648 H   0  0  0  0  0  0  0  0  0  0  0  0
  1  2  1  0  0  0  0
  1 12  1  0  0  0  0
  1 13  1  0  0  0  0
  1 14  1  0  0  0  0
  2  3  1  0  0  0  0
  2 15  1  0  0  0  0
  2 16  1  0  0  0  0
  3  4  1  0  0  0  0
  3 17  1  0  0  0  0
  3 18  1  0  0  0  0
  4  5  1  0  0  0  0
  4  6  1  0  0  0  0
  4 19  1  6  0  0  0
  5 20  1  0  0  0  0
  6  7  1  0  0  0  0
  6 21  1  0  0  0  0
  6 22  1  0  0  0  0
  7  8  2  0  0  0  0
  7  9  1  0  0  0  0
  9 10  1  0  0  0  0
 10 11  1  0  0  0  0
 10 23  1  0  0  0  0
 10 24  1  0  0  0  0
 11 25  1  0  0  0  0
 11 26  1  0  0  0  0
 11 27  1  0  0  0  0
M  END
$$$$
