CHEBI:9407
 OpenBabel04242411393D

 78 81  0  0  1  0  0  0  0  0999 V2000
    2.8344   -0.3761   -3.8595 C   0  0  0  0  0  0  0  0  0  0  0  0
    1.9391   -1.5810   -3.5331 C   0  0  2  0  0  0  0  0  0  0  0  0
    2.3346   -2.7549   -4.4730 C   0  0  0  0  0  0  0  0  0  0  0  0
    1.7182   -4.1236   -4.1531 C   0  0  0  0  0  0  0  0  0  0  0  0
    0.3834   -4.3362   -4.8404 C   0  0  0  0  0  0  0  0  0  0  0  0
    0.2587   -4.2078   -6.0485 O   0  0  0  0  0  0  0  0  0  0  0  0
   -0.6496   -4.5940   -3.9649 N   0  0  0  0  0  0  0  0  0  0  0  0
   -2.0265   -4.7112   -4.4181 C   0  0  0  0  0  0  0  0  0  0  0  0
   -2.6408   -6.0808   -4.2170 C   0  0  0  0  0  0  0  0  0  0  0  0
   -2.3251   -7.2087   -5.5429 S   0  0  0  0  0  0  0  0  0  0  0  0
   -0.8895   -7.4605   -5.4480 O   0  0  0  0  0  0  0  0  0  0  0  0
   -3.1612   -8.3534   -5.1797 O   0  0  0  0  0  0  0  0  0  0  0  0
   -2.7785   -6.4869   -6.7284 O   0  5  0  0  0  0  0  0  0  0  0  0
    0.4139   -1.2349   -3.3748 C   0  0  1  0  0  0  0  0  0  0  0  0
    0.2119   -0.3074   -2.1454 C   0  0  0  0  0  0  0  0  0  0  0  0
   -0.2743    1.0475   -2.6617 C   0  0  0  0  0  0  0  0  0  0  0  0
   -0.1801    0.9887   -4.1940 C   0  0  1  0  0  0  0  0  0  0  0  0
   -1.1328    2.0080   -4.8872 C   0  0  2  0  0  0  0  0  0  0  0  0
   -0.3376    3.0059   -5.7594 C   0  0  2  0  0  0  0  0  0  0  0  0
    0.5132    3.8160   -4.9469 O   0  0  0  0  0  0  0  0  0  0  0  0
   -1.2379    3.9583   -6.5493 C   0  0  0  0  0  0  0  0  0  0  0  0
   -2.2881    3.1938   -7.3559 C   0  0  2  0  0  0  0  0  0  0  0  0
   -3.0723    4.1151   -8.2927 C   0  0  0  0  0  0  0  0  0  0  0  0
   -4.0157    3.3008   -9.1760 C   0  0  2  0  0  0  0  0  0  0  0  0
   -4.7875    4.1813   -9.9856 O   0  0  0  0  0  0  0  0  0  0  0  0
   -4.9559    2.4360   -8.3446 C   0  0  0  0  0  0  0  0  0  0  0  0
   -4.1979    1.5416   -7.3613 C   0  0  0  0  0  0  0  0  0  0  0  0
   -3.2039    2.3144   -6.4433 C   0  0  1  0  0  0  0  0  0  0  0  0
   -4.0202    3.1507   -5.4334 C   0  0  0  0  0  0  0  0  0  0  0  0
   -2.2444    1.3123   -5.7138 C   0  0  1  0  0  0  0  0  0  0  0  0
   -2.9109    0.2307   -4.8573 C   0  0  0  0  0  0  0  0  0  0  0  0
   -1.9273   -0.8410   -4.3467 C   0  0  0  0  0  0  0  0  0  0  0  0
   -0.4089   -0.5071   -4.5043 C   0  0  2  0  0  0  0  0  0  0  0  0
    0.0499   -0.8872   -5.9173 C   0  0  0  0  0  0  0  0  0  0  0  0
    3.8915   -0.6508   -3.7689 H   0  0  0  0  0  0  0  0  0  0  0  0
    2.6679    0.4566   -3.1707 H   0  0  0  0  0  0  0  0  0  0  0  0
    2.6854   -0.0199   -4.8815 H   0  0  0  0  0  0  0  0  0  0  0  0
    2.2591   -1.9163   -2.5345 H   0  0  0  0  0  0  0  0  0  0  0  0
    3.4223   -2.8842   -4.3745 H   0  0  0  0  0  0  0  0  0  0  0  0
    2.1862   -2.4872   -5.5227 H   0  0  0  0  0  0  0  0  0  0  0  0
    1.6490   -4.2731   -3.0713 H   0  0  0  0  0  0  0  0  0  0  0  0
    2.3788   -4.9103   -4.5399 H   0  0  0  0  0  0  0  0  0  0  0  0
   -0.4271   -4.8960   -3.0281 H   0  0  0  0  0  0  0  0  0  0  0  0
   -2.1259   -4.3471   -5.4446 H   0  0  0  0  0  0  0  0  0  0  0  0
   -2.5737   -4.0082   -3.7779 H   0  0  0  0  0  0  0  0  0  0  0  0
   -3.7312   -5.9763   -4.1709 H   0  0  0  0  0  0  0  0  0  0  0  0
   -2.3026   -6.5487   -3.2869 H   0  0  0  0  0  0  0  0  0  0  0  0
   -0.0822   -2.1806   -3.1349 H   0  0  0  0  0  0  0  0  0  0  0  0
    1.1180   -0.1937   -1.5409 H   0  0  0  0  0  0  0  0  0  0  0  0
   -0.5451   -0.7344   -1.4756 H   0  0  0  0  0  0  0  0  0  0  0  0
    0.3315    1.8673   -2.2608 H   0  0  0  0  0  0  0  0  0  0  0  0
   -1.3043    1.2131   -2.3238 H   0  0  0  0  0  0  0  0  0  0  0  0
    0.8503    1.2371   -4.4609 H   0  0  0  0  0  0  0  0  0  0  0  0
   -1.6040    2.5988   -4.0908 H   0  0  0  0  0  0  0  0  0  0  0  0
    0.2985    2.4568   -6.4656 H   0  0  0  0  0  0  0  0  0  0  0  0
    1.2249    3.2500   -4.6045 H   0  0  0  0  0  0  0  0  0  0  0  0
   -0.6068    4.5543   -7.2217 H   0  0  0  0  0  0  0  0  0  0  0  0
   -1.7054    4.6882   -5.8776 H   0  0  0  0  0  0  0  0  0  0  0  0
   -1.7291    2.5111   -8.0162 H   0  0  0  0  0  0  0  0  0  0  0  0
   -2.3804    4.6753   -8.9351 H   0  0  0  0  0  0  0  0  0  0  0  0
   -3.6297    4.8760   -7.7342 H   0  0  0  0  0  0  0  0  0  0  0  0
   -3.4342    2.6569   -9.8478 H   0  0  0  0  0  0  0  0  0  0  0  0
   -4.1659    4.6560  -10.5635 H   0  0  0  0  0  0  0  0  0  0  0  0
   -5.5632    1.8130   -9.0133 H   0  0  0  0  0  0  0  0  0  0  0  0
   -5.6753    3.0696   -7.8122 H   0  0  0  0  0  0  0  0  0  0  0  0
   -3.6491    0.7860   -7.9393 H   0  0  0  0  0  0  0  0  0  0  0  0
   -4.9337    0.9956   -6.7590 H   0  0  0  0  0  0  0  0  0  0  0  0
   -4.6444    3.8995   -5.9300 H   0  0  0  0  0  0  0  0  0  0  0  0
   -3.3894    3.6902   -4.7228 H   0  0  0  0  0  0  0  0  0  0  0  0
   -4.6933    2.5132   -4.8497 H   0  0  0  0  0  0  0  0  0  0  0  0
   -1.7606    0.8028   -6.5461 H   0  0  0  0  0  0  0  0  0  0  0  0
   -3.7055   -0.2801   -5.4108 H   0  0  0  0  0  0  0  0  0  0  0  0
   -3.3977    0.6984   -3.9921 H   0  0  0  0  0  0  0  0  0  0  0  0
   -2.1393   -1.7854   -4.8625 H   0  0  0  0  0  0  0  0  0  0  0  0
   -2.1801   -1.0372   -3.2962 H   0  0  0  0  0  0  0  0  0  0  0  0
    0.2325   -1.9501   -5.9830 H   0  0  0  0  0  0  0  0  0  0  0  0
    0.9568   -0.3597   -6.2201 H   0  0  0  0  0  0  0  0  0  0  0  0
   -0.6956   -0.7213   -6.6944 H   0  0  0  0  0  0  0  0  0  0  0  0
  1  2  1  0  0  0  0
  1 35  1  0  0  0  0
  1 36  1  0  0  0  0
  1 37  1  0  0  0  0
  2  3  1  0  0  0  0
  2 38  1  1  0  0  0
  3  4  1  0  0  0  0
  3 39  1  0  0  0  0
  3 40  1  0  0  0  0
  4  5  1  0  0  0  0
  4 41  1  0  0  0  0
  4 42  1  0  0  0  0
  5  6  2  0  0  0  0
  5  7  1  0  0  0  0
  7  8  1  0  0  0  0
  7 43  1  0  0  0  0
  8  9  1  0  0  0  0
  8 44  1  0  0  0  0
  8 45  1  0  0  0  0
  9 10  1  0  0  0  0
  9 46  1  0  0  0  0
  9 47  1  0  0  0  0
 10 11  2  0  0  0  0
 10 12  2  0  0  0  0
 10 13  1  0  0  0  0
 14 15  1  0  0  0  0
 14 33  1  0  0  0  0
 14  2  1  0  0  0  0
 14 48  1  1  0  0  0
 15 16  1  0  0  0  0
 15 49  1  0  0  0  0
 15 50  1  0  0  0  0
 16 17  1  0  0  0  0
 16 51  1  0  0  0  0
 16 52  1  0  0  0  0
 17 18  1  0  0  0  0
 17 33  1  0  0  0  0
 17 53  1  1  0  0  0
 18 19  1  0  0  0  0
 18 30  1  0  0  0  0
 18 54  1  6  0  0  0
 19 21  1  0  0  0  0
 19 20  1  0  0  0  0
 19 55  1  6  0  0  0
 20 56  1  0  0  0  0
 21 22  1  0  0  0  0
 21 57  1  0  0  0  0
 21 58  1  0  0  0  0
 22 23  1  0  0  0  0
 22 28  1  0  0  0  0
 22 59  1  6  0  0  0
 23 24  1  0  0  0  0
 23 60  1  0  0  0  0
 23 61  1  0  0  0  0
 24 26  1  0  0  0  0
 24 25  1  0  0  0  0
 24 62  1  6  0  0  0
 25 63  1  0  0  0  0
 26 27  1  0  0  0  0
 26 64  1  0  0  0  0
 26 65  1  0  0  0  0
 27 28  1  0  0  0  0
 27 66  1  0  0  0  0
 27 67  1  0  0  0  0
 28 30  1  0  0  0  0
 28 29  1  6  0  0  0
 29 68  1  0  0  0  0
 29 69  1  0  0  0  0
 29 70  1  0  0  0  0
 30 31  1  0  0  0  0
 30 71  1  1  0  0  0
 31 32  1  0  0  0  0
 31 72  1  0  0  0  0
 31 73  1  0  0  0  0
 32 33  1  0  0  0  0
 32 74  1  0  0  0  0
 32 75  1  0  0  0  0
 33 34  1  6  0  0  0
 34 76  1  0  0  0  0
 34 77  1  0  0  0  0
 34 78  1  0  0  0  0
M  CHG  1  13  -1
M  END
$$$$
