CHEBI:16929
 OpenBabel04242415323D

 27 26  0  0  1  0  0  0  0  0999 V2000
    2.7945   -3.4818    5.2892 N   0  0  0  0  0  0  0  0  0  0  0  0
    4.0539   -3.7202    4.5776 C   0  0  0  0  0  0  0  0  0  0  0  0
    4.8451   -2.4226    4.4010 C   0  0  0  0  0  0  0  0  0  0  0  0
    4.0988   -1.5355    3.5784 O   0  0  0  0  0  0  0  0  0  0  0  0
    4.6153   -0.0289    3.4180 P   0  0  0  0  0  0  0  0  0  0  0  0
    3.8214    0.8146    2.4749 O   0  0  0  0  0  0  0  0  0  0  0  0
    4.5921    0.5449    4.9112 O   0  0  0  0  0  0  0  0  0  0  0  0
    6.1749   -0.1364    3.0656 O   0  0  0  0  0  0  0  0  0  0  0  0
    6.9544    1.0539    3.0255 C   0  0  0  0  0  0  0  0  0  0  0  0
    6.7691    1.8125    1.7068 C   0  0  1  0  0  0  0  0  0  0  0  0
    5.5799    2.6196    1.7374 O   0  0  0  0  0  0  0  0  0  0  0  0
    7.9328    2.7781    1.4661 C   0  0  0  0  0  0  0  0  0  0  0  0
    7.7081    3.4961    0.2528 O   0  0  0  0  0  0  0  0  0  0  0  0
    2.2720   -2.7688    4.7770 H   0  0  0  0  0  0  0  0  0  0  0  0
    2.2256   -4.3270    5.2527 H   0  0  0  0  0  0  0  0  0  0  0  0
    3.8199   -4.1443    3.5948 H   0  0  0  0  0  0  0  0  0  0  0  0
    4.6500   -4.4490    5.1352 H   0  0  0  0  0  0  0  0  0  0  0  0
    5.7996   -2.6400    3.9112 H   0  0  0  0  0  0  0  0  0  0  0  0
    5.0466   -1.9599    5.3730 H   0  0  0  0  0  0  0  0  0  0  0  0
    3.7307    0.9577    5.1074 H   0  0  0  0  0  0  0  0  0  0  0  0
    7.9962    0.7351    3.1334 H   0  0  0  0  0  0  0  0  0  0  0  0
    6.7030    1.6846    3.8847 H   0  0  0  0  0  0  0  0  0  0  0  0
    6.6651    1.1255    0.8595 H   0  0  0  0  0  0  0  0  0  0  0  0
    4.8031    2.0155    1.7420 H   0  0  0  0  0  0  0  0  0  0  0  0
    8.8855    2.2476    1.3812 H   0  0  0  0  0  0  0  0  0  0  0  0
    8.0067    3.5160    2.2720 H   0  0  0  0  0  0  0  0  0  0  0  0
    6.7712    3.7767    0.3007 H   0  0  0  0  0  0  0  0  0  0  0  0
  1  2  1  0  0  0  0
  1 14  1  0  0  0  0
  1 15  1  0  0  0  0
  2  3  1  0  0  0  0
  2 16  1  0  0  0  0
  2 17  1  0  0  0  0
  3  4  1  0  0  0  0
  3 18  1  0  0  0  0
  3 19  1  0  0  0  0
  4  5  1  0  0  0  0
  5  6  2  0  0  0  0
  5  7  1  0  0  0  0
  5  8  1  0  0  0  0
  7 20  1  0  0  0  0
  8  9  1  0  0  0  0
  9 10  1  0  0  0  0
  9 21  1  0  0  0  0
  9 22  1  0  0  0  0
 10 11  1  0  0  0  0
 10 12  1  0  0  0  0
 10 23  1  6  0  0  0
 11 24  1  0  0  0  0
 12 13  1  0  0  0  0
 12 25  1  0  0  0  0
 12 26  1  0  0  0  0
 13 27  1  0  0  0  0
M  END
$$$$
