CHEBI:27453
 OpenBabel04252410033D

 22 22  0  0  1  0  0  0  0  0999 V2000
    1.0385   -0.2376    0.0136 O   0  0  0  0  0  0  0  0  0  0  0  0
    2.2689   -0.1784    0.0032 C   0  0  0  0  0  0  0  0  0  0  0  0
    3.1164   -1.4389   -0.0679 C   0  0  1  0  0  0  0  0  0  0  0  0
    2.3566   -2.6102   -0.3614 O   0  0  0  0  0  0  0  0  0  0  0  0
    4.1778   -1.2256   -1.1608 C   0  0  2  0  0  0  0  0  0  0  0  0
    5.1130   -2.2981   -1.1274 O   0  0  0  0  0  0  0  0  0  0  0  0
    4.8873    0.0002   -0.9609 O   0  0  0  0  0  0  0  0  0  0  0  0
    4.0097    1.1343   -1.0894 C   0  0  2  0  0  0  0  0  0  0  0  0
    4.8559    2.4077   -1.1427 C   0  0  0  0  0  0  0  0  0  0  0  0
    4.0391    3.5275   -1.4605 O   0  0  0  0  0  0  0  0  0  0  0  0
    3.0445    1.1267    0.1030 C   0  0  2  0  0  0  0  0  0  0  0  0
    3.7481    1.1505    1.3463 O   0  0  0  0  0  0  0  0  0  0  0  0
    3.5863   -1.5886    0.9103 H   0  0  0  0  0  0  0  0  0  0  0  0
    1.4716   -2.4622    0.0323 H   0  0  0  0  0  0  0  0  0  0  0  0
    3.7254   -1.2334   -2.1601 H   0  0  0  0  0  0  0  0  0  0  0  0
    4.5974   -3.0930   -0.8924 H   0  0  0  0  0  0  0  0  0  0  0  0
    3.4470    1.0542   -2.0298 H   0  0  0  0  0  0  0  0  0  0  0  0
    5.6475    2.3143   -1.8953 H   0  0  0  0  0  0  0  0  0  0  0  0
    5.3561    2.5978   -0.1874 H   0  0  0  0  0  0  0  0  0  0  0  0
    4.1903    3.7482   -2.3967 H   0  0  0  0  0  0  0  0  0  0  0  0
    2.3469    1.9688    0.0725 H   0  0  0  0  0  0  0  0  0  0  0  0
    4.6174    0.7252    1.2133 H   0  0  0  0  0  0  0  0  0  0  0  0
  1  2  2  0  0  0  0
  2  3  1  0  0  0  0
  2 11  1  0  0  0  0
  3  4  1  0  0  0  0
  3  5  1  0  0  0  0
  3 13  1  1  0  0  0
  4 14  1  0  0  0  0
  5  6  1  0  0  0  0
  5  7  1  0  0  0  0
  5 15  1  6  0  0  0
  6 16  1  0  0  0  0
  7  8  1  0  0  0  0
  8  9  1  0  0  0  0
  8 11  1  0  0  0  0
  8 17  1  6  0  0  0
  9 10  1  0  0  0  0
  9 18  1  0  0  0  0
  9 19  1  0  0  0  0
 10 20  1  0  0  0  0
 11 12  1  0  0  0  0
 11 21  1  6  0  0  0
 12 22  1  0  0  0  0
M  END
$$$$
