CHEBI:15964
 OpenBabel04242413343D

 24 24  0  0  0  0  0  0  0  0999 V2000
    1.1137   -1.9844    2.5751 O   0  0  0  0  0  0  0  0  0  0  0  0
    2.3120   -2.2252    1.8098 S   0  0  0  0  0  0  0  0  0  0  0  0
    2.8452   -3.5498    1.6221 O   0  0  0  0  0  0  0  0  0  0  0  0
    2.0504   -1.5743    0.3684 O   0  0  0  0  0  0  0  0  0  0  0  0
    3.4984   -1.2477    2.4589 N   0  0  0  0  0  0  0  0  0  0  0  0
    4.8413   -1.2533    1.8412 C   0  0  0  0  0  0  0  0  0  0  0  0
    5.4789    0.1167    2.1198 C   0  0  0  0  0  0  0  0  0  0  0  0
    6.9298    0.1850    1.6510 C   0  0  0  0  0  0  0  0  0  0  0  0
    7.7640   -0.9440    2.2461 C   0  0  0  0  0  0  0  0  0  0  0  0
    7.1460   -2.3047    1.9466 C   0  0  0  0  0  0  0  0  0  0  0  0
    5.6986   -2.3814    2.4267 C   0  0  0  0  0  0  0  0  0  0  0  0
    1.1518   -1.1858    0.3919 H   0  0  0  0  0  0  0  0  0  0  0  0
    3.4949   -1.3064    3.4766 H   0  0  0  0  0  0  0  0  0  0  0  0
    4.7527   -1.3745    0.7545 H   0  0  0  0  0  0  0  0  0  0  0  0
    5.4401    0.3352    3.1956 H   0  0  0  0  0  0  0  0  0  0  0  0
    4.8981    0.9053    1.6253 H   0  0  0  0  0  0  0  0  0  0  0  0
    7.3632    1.1509    1.9344 H   0  0  0  0  0  0  0  0  0  0  0  0
    6.9639    0.1280    0.5562 H   0  0  0  0  0  0  0  0  0  0  0  0
    7.8421   -0.8091    3.3321 H   0  0  0  0  0  0  0  0  0  0  0  0
    8.7828   -0.9035    1.8447 H   0  0  0  0  0  0  0  0  0  0  0  0
    7.7357   -3.0920    2.4295 H   0  0  0  0  0  0  0  0  0  0  0  0
    7.1835   -2.4942    0.8667 H   0  0  0  0  0  0  0  0  0  0  0  0
    5.6782   -2.3378    3.5234 H   0  0  0  0  0  0  0  0  0  0  0  0
    5.2915   -3.3592    2.1505 H   0  0  0  0  0  0  0  0  0  0  0  0
  1  2  2  0  0  0  0
  2  3  2  0  0  0  0
  2  4  1  0  0  0  0
  2  5  1  0  0  0  0
  4 12  1  0  0  0  0
  5  6  1  0  0  0  0
  5 13  1  0  0  0  0
  6  7  1  0  0  0  0
  6 11  1  0  0  0  0
  6 14  1  0  0  0  0
  7  8  1  0  0  0  0
  7 15  1  0  0  0  0
  7 16  1  0  0  0  0
  8  9  1  0  0  0  0
  8 17  1  0  0  0  0
  8 18  1  0  0  0  0
  9 10  1  0  0  0  0
  9 19  1  0  0  0  0
  9 20  1  0  0  0  0
 10 11  1  0  0  0  0
 10 21  1  0  0  0  0
 10 22  1  0  0  0  0
 11 23  1  0  0  0  0
 11 24  1  0  0  0  0
M  END
$$$$
