CHEBI:15830
 OpenBabel04242413203D

 30 29  0  0  0  0  0  0  0  0999 V2000
    8.6913   -2.1439   -0.9897 C   0  0  0  0  0  0  0  0  0  0  0  0
    7.3630   -1.9068   -0.2865 C   0  0  0  0  0  0  0  0  0  0  0  0
    7.5598   -2.0007    1.1734 N   0  0  0  0  0  0  0  0  0  0  0  0
    6.8001   -0.5182   -0.6393 C   0  0  0  0  0  0  0  0  0  0  0  0
    6.8897    0.4289    0.1466 O   0  0  0  0  0  0  0  0  0  0  0  0
    6.1074   -0.3956   -1.9900 C   0  0  0  0  0  0  0  0  0  0  0  0
    5.5930    1.0124   -2.2900 C   0  0  0  0  0  0  0  0  0  0  0  0
    6.7259    1.9921   -2.6120 C   0  0  0  0  0  0  0  0  0  0  0  0
    6.1812    3.3924   -2.9114 C   0  0  0  0  0  0  0  0  0  0  0  0
    7.2933    4.4247   -3.0983 C   0  0  0  0  0  0  0  0  0  0  0  0
    8.0704    4.2459   -4.3832 C   0  0  0  0  0  0  0  0  0  0  0  0
    7.8000    3.4577   -5.2741 O   0  0  0  0  0  0  0  0  0  0  0  0
    9.1251    5.0914   -4.4632 O   0  0  0  0  0  0  0  0  0  0  0  0
    9.1234   -3.1086   -0.7011 H   0  0  0  0  0  0  0  0  0  0  0  0
    9.4185   -1.3590   -0.7514 H   0  0  0  0  0  0  0  0  0  0  0  0
    8.5647   -2.1510   -2.0772 H   0  0  0  0  0  0  0  0  0  0  0  0
    6.6310   -2.6655   -0.5816 H   0  0  0  0  0  0  0  0  0  0  0  0
    8.1683   -1.2248    1.4521 H   0  0  0  0  0  0  0  0  0  0  0  0
    6.6732   -1.7762    1.6300 H   0  0  0  0  0  0  0  0  0  0  0  0
    5.2543   -1.0838   -1.9732 H   0  0  0  0  0  0  0  0  0  0  0  0
    6.7944   -0.7212   -2.7771 H   0  0  0  0  0  0  0  0  0  0  0  0
    5.0051    1.3866   -1.4431 H   0  0  0  0  0  0  0  0  0  0  0  0
    4.9148    0.9596   -3.1506 H   0  0  0  0  0  0  0  0  0  0  0  0
    7.2923    1.6164   -3.4715 H   0  0  0  0  0  0  0  0  0  0  0  0
    7.4255    2.0505   -1.7713 H   0  0  0  0  0  0  0  0  0  0  0  0
    5.5512    3.7162   -2.0735 H   0  0  0  0  0  0  0  0  0  0  0  0
    5.5396    3.3590   -3.8001 H   0  0  0  0  0  0  0  0  0  0  0  0
    7.9890    4.3757   -2.2532 H   0  0  0  0  0  0  0  0  0  0  0  0
    6.8455    5.4246   -3.1253 H   0  0  0  0  0  0  0  0  0  0  0  0
    9.2187    5.6759   -3.6873 H   0  0  0  0  0  0  0  0  0  0  0  0
  1  2  1  0  0  0  0
  1 14  1  0  0  0  0
  1 15  1  0  0  0  0
  1 16  1  0  0  0  0
  2  3  1  0  0  0  0
  2  4  1  0  0  0  0
  2 17  1  0  0  0  0
  3 18  1  0  0  0  0
  3 19  1  0  0  0  0
  4  5  2  0  0  0  0
  4  6  1  0  0  0  0
  6  7  1  0  0  0  0
  6 20  1  0  0  0  0
  6 21  1  0  0  0  0
  7  8  1  0  0  0  0
  7 22  1  0  0  0  0
  7 23  1  0  0  0  0
  8  9  1  0  0  0  0
  8 24  1  0  0  0  0
  8 25  1  0  0  0  0
  9 10  1  0  0  0  0
  9 26  1  0  0  0  0
  9 27  1  0  0  0  0
 10 11  1  0  0  0  0
 10 28  1  0  0  0  0
 10 29  1  0  0  0  0
 11 12  2  0  0  0  0
 11 13  1  0  0  0  0
 13 30  1  0  0  0  0
M  END
$$$$
