CHEBI:16947
 OpenBabel04242415343D

 18 17  0  0  0  0  0  0  0  0999 V2000
    0.9618    2.3220   -0.3999 O   0  0  0  0  0  0  0  0  0  0  0  0
    2.1695    2.2536   -0.8140 C   0  0  0  0  0  0  0  0  0  0  0  0
    2.6359    2.7864   -1.8566 O   0  5  0  0  0  0  0  0  0  0  0  0
    3.0679    1.3357    0.0201 C   0  0  0  0  0  0  0  0  0  0  0  0
    4.5922    1.1449   -0.1572 C   0  0  0  0  0  0  0  0  0  0  0  0
    4.9237    0.1002    0.8361 O   0  0  0  0  0  0  0  0  0  0  0  0
    4.9506    0.5674   -1.5453 C   0  0  0  0  0  0  0  0  0  0  0  0
    6.2972   -0.1521   -1.7490 C   0  0  0  0  0  0  0  0  0  0  0  0
    6.6127   -0.4003   -2.9583 O   0  0  0  0  0  0  0  0  0  0  0  0
    6.8877   -0.5801   -0.7060 O   0  5  0  0  0  0  0  0  0  0  0  0
    5.3749    2.4787    0.2361 C   0  0  0  0  0  0  0  0  0  0  0  0
    6.3266    2.8464   -0.5210 O   0  0  0  0  0  0  0  0  0  0  0  0
    5.0357    3.0315    1.3367 O   0  5  0  0  0  0  0  0  0  0  0  0
    2.6034    0.3403   -0.0606 H   0  0  0  0  0  0  0  0  0  0  0  0
    2.8854    1.6212    1.0673 H   0  0  0  0  0  0  0  0  0  0  0  0
    5.8519   -0.1379    0.5850 H   0  0  0  0  0  0  0  0  0  0  0  0
    4.8833    1.3611   -2.2994 H   0  0  0  0  0  0  0  0  0  0  0  0
    4.1982   -0.1873   -1.8137 H   0  0  0  0  0  0  0  0  0  0  0  0
  1  2  2  0  0  0  0
  2  3  1  0  0  0  0
  2  4  1  0  0  0  0
  4  5  1  0  0  0  0
  4 14  1  0  0  0  0
  4 15  1  0  0  0  0
  5  6  1  0  0  0  0
  5  7  1  0  0  0  0
  5 11  1  0  0  0  0
  6 16  1  0  0  0  0
  7  8  1  0  0  0  0
  7 17  1  0  0  0  0
  7 18  1  0  0  0  0
  8  9  2  0  0  0  0
  8 10  1  0  0  0  0
 11 12  2  0  0  0  0
 11 13  1  0  0  0  0
M  CHG  3   3  -1  10  -1  13  -1
M  END
$$$$
