CHEBI:11901
 OpenBabel04242411423D

 66 69  0  0  1  0  0  0  0  0999 V2000
    1.4456   -3.3238   -0.7729 C   0  0  0  0  0  0  0  0  0  0  0  0
    2.8051   -2.9700   -0.1621 C   0  0  2  0  0  0  0  0  0  0  0  0
    2.6951   -2.8935    1.3891 C   0  0  0  0  0  0  0  0  0  0  0  0
    1.5967   -1.9967    1.9687 C   0  0  0  0  0  0  0  0  0  0  0  0
    1.8118   -0.4969    1.7777 C   0  0  0  0  0  0  0  0  0  0  0  0
    2.8475   -0.0212    2.3206 O   0  0  0  0  0  0  0  0  0  0  0  0
    0.9344    0.0857    1.0793 O   0  5  0  0  0  0  0  0  0  0  0  0
    3.4404   -1.6995   -0.7841 C   0  0  1  0  0  0  0  0  0  0  0  0
    4.8531   -1.4149   -0.2286 C   0  0  0  0  0  0  0  0  0  0  0  0
    5.6565   -0.7807   -1.3622 C   0  0  0  0  0  0  0  0  0  0  0  0
    4.6354   -0.4208   -2.4541 C   0  0  1  0  0  0  0  0  0  0  0  0
    4.0015    1.0102   -2.2573 C   0  0  2  0  0  0  0  0  0  0  0  0
    5.0089    2.1414   -2.6049 C   0  0  2  0  0  0  0  0  0  0  0  0
    6.1315    2.1605   -1.7308 O   0  0  0  0  0  0  0  0  0  0  0  0
    4.4001    3.5419   -2.5469 C   0  0  0  0  0  0  0  0  0  0  0  0
    3.1588    3.6479   -3.4237 C   0  0  2  0  0  0  0  0  0  0  0  0
    2.6410    5.0907   -3.4776 C   0  0  0  0  0  0  0  0  0  0  0  0
    1.4603    5.2117   -4.4387 C   0  0  2  0  0  0  0  0  0  0  0  0
    0.9223    6.5300   -4.3844 O   0  0  0  0  0  0  0  0  0  0  0  0
    0.3552    4.2139   -4.1125 C   0  0  0  0  0  0  0  0  0  0  0  0
    0.8776    2.7785   -4.0013 C   0  0  0  0  0  0  0  0  0  0  0  0
    2.0667    2.6194   -3.0069 C   0  0  1  0  0  0  0  0  0  0  0  0
    1.5390    2.8746   -1.5714 C   0  0  0  0  0  0  0  0  0  0  0  0
    2.7018    1.1791   -3.1139 C   0  0  1  0  0  0  0  0  0  0  0  0
    1.7032    0.0622   -2.7940 C   0  0  0  0  0  0  0  0  0  0  0  0
    2.3468   -1.2668   -3.0865 C   0  0  0  0  0  0  0  0  0  0  0  0
    1.8657   -2.0120   -3.9439 O   0  0  0  0  0  0  0  0  0  0  0  0
    3.6272   -1.6107   -2.3240 C   0  0  2  0  0  0  0  0  0  0  0  0
    4.2339   -2.9030   -2.9175 C   0  0  0  0  0  0  0  0  0  0  0  0
    0.9774   -4.1493   -0.2252 H   0  0  0  0  0  0  0  0  0  0  0  0
    1.5449   -3.6555   -1.8088 H   0  0  0  0  0  0  0  0  0  0  0  0
    0.7597   -2.4711   -0.7567 H   0  0  0  0  0  0  0  0  0  0  0  0
    3.4778   -3.8128   -0.3724 H   0  0  0  0  0  0  0  0  0  0  0  0
    3.6626   -2.6128    1.8204 H   0  0  0  0  0  0  0  0  0  0  0  0
    2.5022   -3.9125    1.7521 H   0  0  0  0  0  0  0  0  0  0  0  0
    1.5511   -2.1676    3.0526 H   0  0  0  0  0  0  0  0  0  0  0  0
    0.6137   -2.2894    1.5838 H   0  0  0  0  0  0  0  0  0  0  0  0
    2.8111   -0.8596   -0.4888 H   0  0  0  0  0  0  0  0  0  0  0  0
    5.3580   -2.3238    0.1167 H   0  0  0  0  0  0  0  0  0  0  0  0
    4.7967   -0.7280    0.6221 H   0  0  0  0  0  0  0  0  0  0  0  0
    6.3702   -1.5153   -1.7555 H   0  0  0  0  0  0  0  0  0  0  0  0
    6.2661    0.0382   -0.9882 H   0  0  0  0  0  0  0  0  0  0  0  0
    5.1183   -0.4398   -3.4399 H   0  0  0  0  0  0  0  0  0  0  0  0
    3.7454    1.1095   -1.1954 H   0  0  0  0  0  0  0  0  0  0  0  0
    5.3990    1.9707   -3.6159 H   0  0  0  0  0  0  0  0  0  0  0  0
    5.7837    2.1840   -0.8187 H   0  0  0  0  0  0  0  0  0  0  0  0
    5.1563    4.2667   -2.8773 H   0  0  0  0  0  0  0  0  0  0  0  0
    4.1789    3.8188   -1.5087 H   0  0  0  0  0  0  0  0  0  0  0  0
    3.4751    3.3981   -4.4486 H   0  0  0  0  0  0  0  0  0  0  0  0
    3.4408    5.7639   -3.8132 H   0  0  0  0  0  0  0  0  0  0  0  0
    2.3624    5.4563   -2.4821 H   0  0  0  0  0  0  0  0  0  0  0  0
    1.8066    5.0427   -5.4654 H   0  0  0  0  0  0  0  0  0  0  0  0
    1.6629    7.1523   -4.4777 H   0  0  0  0  0  0  0  0  0  0  0  0
   -0.4189    4.2637   -4.8886 H   0  0  0  0  0  0  0  0  0  0  0  0
   -0.1534    4.5087   -3.1864 H   0  0  0  0  0  0  0  0  0  0  0  0
    1.1913    2.4448   -4.9993 H   0  0  0  0  0  0  0  0  0  0  0  0
    0.0373    2.1391   -3.7085 H   0  0  0  0  0  0  0  0  0  0  0  0
    1.1803    3.8984   -1.4343 H   0  0  0  0  0  0  0  0  0  0  0  0
    2.3013    2.7052   -0.8067 H   0  0  0  0  0  0  0  0  0  0  0  0
    0.6938    2.2179   -1.3387 H   0  0  0  0  0  0  0  0  0  0  0  0
    3.0056    1.0429   -4.1641 H   0  0  0  0  0  0  0  0  0  0  0  0
    0.8138    0.1330   -3.4278 H   0  0  0  0  0  0  0  0  0  0  0  0
    1.3596    0.0791   -1.7580 H   0  0  0  0  0  0  0  0  0  0  0  0
    3.5103   -3.7244   -2.9299 H   0  0  0  0  0  0  0  0  0  0  0  0
    5.1053   -3.2592   -2.3601 H   0  0  0  0  0  0  0  0  0  0  0  0
    4.5472   -2.7423   -3.9558 H   0  0  0  0  0  0  0  0  0  0  0  0
  1  2  1  0  0  0  0
  1 30  1  0  0  0  0
  1 31  1  0  0  0  0
  1 32  1  0  0  0  0
  2  3  1  0  0  0  0
  2 33  1  6  0  0  0
  3  4  1  0  0  0  0
  3 34  1  0  0  0  0
  3 35  1  0  0  0  0
  4  5  1  0  0  0  0
  4 36  1  0  0  0  0
  4 37  1  0  0  0  0
  5  6  2  0  0  0  0
  5  7  1  0  0  0  0
  8  9  1  0  0  0  0
  8 28  1  0  0  0  0
  8  2  1  0  0  0  0
  8 38  1  1  0  0  0
  9 10  1  0  0  0  0
  9 39  1  0  0  0  0
  9 40  1  0  0  0  0
 10 11  1  0  0  0  0
 10 41  1  0  0  0  0
 10 42  1  0  0  0  0
 11 12  1  0  0  0  0
 11 28  1  0  0  0  0
 11 43  1  1  0  0  0
 12 13  1  0  0  0  0
 12 24  1  0  0  0  0
 12 44  1  6  0  0  0
 13 15  1  0  0  0  0
 13 14  1  0  0  0  0
 13 45  1  6  0  0  0
 14 46  1  0  0  0  0
 15 16  1  0  0  0  0
 15 47  1  0  0  0  0
 15 48  1  0  0  0  0
 16 17  1  0  0  0  0
 16 22  1  0  0  0  0
 16 49  1  6  0  0  0
 17 18  1  0  0  0  0
 17 50  1  0  0  0  0
 17 51  1  0  0  0  0
 18 20  1  0  0  0  0
 18 19  1  0  0  0  0
 18 52  1  6  0  0  0
 19 53  1  0  0  0  0
 20 21  1  0  0  0  0
 20 54  1  0  0  0  0
 20 55  1  0  0  0  0
 21 22  1  0  0  0  0
 21 56  1  0  0  0  0
 21 57  1  0  0  0  0
 22 24  1  0  0  0  0
 22 23  1  6  0  0  0
 23 58  1  0  0  0  0
 23 59  1  0  0  0  0
 23 60  1  0  0  0  0
 24 25  1  0  0  0  0
 24 61  1  1  0  0  0
 25 26  1  0  0  0  0
 25 62  1  0  0  0  0
 25 63  1  0  0  0  0
 26 28  1  0  0  0  0
 26 27  2  0  0  0  0
 28 29  1  6  0  0  0
 29 64  1  0  0  0  0
 29 65  1  0  0  0  0
 29 66  1  0  0  0  0
M  CHG  1   7  -1
M  END
$$$$
