CHEBI:16668
 OpenBabel04242415023D

 13 12  0  0  0  0  0  0  0  0999 V2000
    1.1322   -0.0547   -0.5125 N   0  0  0  0  0  0  0  0  0  0  0  0
    2.4623   -0.3811    0.0077 C   0  0  0  0  0  0  0  0  0  0  0  0
    3.1195    0.8312    0.6607 C   0  0  0  0  0  0  0  0  0  0  0  0
    4.7523    0.3674    1.3305 S   0  0  0  0  0  0  0  0  0  0  0  0
    5.6666    0.0896    0.1772 O   0  0  0  0  0  0  0  0  0  0  0  0
    5.1096    1.8651    1.7814 O   0  0  0  0  0  0  0  0  0  0  0  0
    0.7312   -0.8868   -0.9464 H   0  0  0  0  0  0  0  0  0  0  0  0
    1.2179    0.6331   -1.2614 H   0  0  0  0  0  0  0  0  0  0  0  0
    3.0826   -0.7595   -0.8130 H   0  0  0  0  0  0  0  0  0  0  0  0
    2.3611   -1.1931    0.7369 H   0  0  0  0  0  0  0  0  0  0  0  0
    2.5125    1.2054    1.4919 H   0  0  0  0  0  0  0  0  0  0  0  0
    3.2616    1.6389   -0.0654 H   0  0  0  0  0  0  0  0  0  0  0  0
    5.9753    2.0828    1.3597 H   0  0  0  0  0  0  0  0  0  0  0  0
  1  2  1  0  0  0  0
  1  7  1  0  0  0  0
  1  8  1  0  0  0  0
  2  3  1  0  0  0  0
  2  9  1  0  0  0  0
  2 10  1  0  0  0  0
  3  4  1  0  0  0  0
  3 11  1  0  0  0  0
  3 12  1  0  0  0  0
  4  5  2  0  0  0  0
  4  6  1  0  0  0  0
  6 13  1  0  0  0  0
M  END
$$$$
