CHEBI:16769
 OpenBabel04242415113D

 16 15  0  0  0  0  0  0  0  0999 V2000
    2.4888    0.0198    1.7204 N   0  0  0  0  0  0  0  0  0  0  0  0
    2.4761    0.2185    0.3744 C   0  0  0  0  0  0  0  0  0  0  0  0
    1.9343    1.1993   -0.1271 O   0  0  0  0  0  0  0  0  0  0  0  0
    3.1735   -0.8461   -0.4431 C   0  0  0  0  0  0  0  0  0  0  0  0
    4.6170   -0.4629   -0.7410 C   0  0  0  0  0  0  0  0  0  0  0  0
    5.5204   -0.4895    0.4655 C   0  0  0  0  0  0  0  0  0  0  0  0
    6.3865    0.3524    0.7009 O   0  0  0  0  0  0  0  0  0  0  0  0
    5.4157   -1.6587    1.4248 C   0  0  0  0  0  0  0  0  0  0  0  0
    4.5834   -1.5029    2.3769 O   0  0  0  0  0  0  0  0  0  0  0  0
    6.0506   -2.7072    1.1027 O   0  5  0  0  0  0  0  0  0  0  0  0
    2.1796    0.7742    2.3126 H   0  0  0  0  0  0  0  0  0  0  0  0
    3.1843   -0.6194    2.1431 H   0  0  0  0  0  0  0  0  0  0  0  0
    2.6177   -0.9479   -1.3831 H   0  0  0  0  0  0  0  0  0  0  0  0
    3.0982   -1.8144    0.0629 H   0  0  0  0  0  0  0  0  0  0  0  0
    4.6578    0.5445   -1.1710 H   0  0  0  0  0  0  0  0  0  0  0  0
    5.0381   -1.1570   -1.4766 H   0  0  0  0  0  0  0  0  0  0  0  0
  1  2  1  0  0  0  0
  1 11  1  0  0  0  0
  1 12  1  0  0  0  0
  2  3  2  0  0  0  0
  2  4  1  0  0  0  0
  4  5  1  0  0  0  0
  4 13  1  0  0  0  0
  4 14  1  0  0  0  0
  5  6  1  0  0  0  0
  5 15  1  0  0  0  0
  5 16  1  0  0  0  0
  6  7  2  0  0  0  0
  6  8  1  0  0  0  0
  8  9  2  0  0  0  0
  8 10  1  0  0  0  0
M  CHG  1  10  -1
M  END
$$$$
