CHEBI:16577
 OpenBabel04242414473D

 77 80  0  0  1  0  0  0  0  0999 V2000
    1.7574    6.4581   -5.7172 C   0  0  0  0  0  0  0  0  0  0  0  0
    1.6460    7.0183   -4.3006 C   0  0  0  0  0  0  0  0  0  0  0  0
    2.6011    6.2930   -3.3382 C   0  0  0  0  0  0  0  0  0  0  0  0
    2.3911    6.7084   -1.8760 C   0  0  0  0  0  0  0  0  0  0  0  0
    3.2749    5.9272   -0.8876 C   0  0  0  0  0  0  0  0  0  0  0  0
    4.8115    6.1389   -1.0316 C   0  0  1  0  0  0  0  0  0  0  0  0
    5.1345    7.6120   -0.7494 C   0  0  0  0  0  0  0  0  0  0  0  0
    5.6073    5.1435   -0.1138 C   0  0  1  0  0  0  0  0  0  0  0  0
    5.2532    3.6732   -0.4410 C   0  0  0  0  0  0  0  0  0  0  0  0
    6.5535    2.8899   -0.5390 C   0  0  0  0  0  0  0  0  0  0  0  0
    7.5960    3.7081    0.2286 C   0  0  1  0  0  0  0  0  0  0  0  0
    7.6675    3.3416    1.7516 C   0  0  2  0  0  0  0  0  0  0  0  0
    8.4136    1.9892    1.9641 C   0  0  2  0  0  0  0  0  0  0  0  0
    7.6721    0.8897    1.4458 O   0  0  0  0  0  0  0  0  0  0  0  0
    8.7379    1.6544    3.4224 C   0  0  0  0  0  0  0  0  0  0  0  0
    9.4287    2.8151    4.1320 C   0  0  2  0  0  0  0  0  0  0  0  0
    9.8752    2.4228    5.5458 C   0  0  0  0  0  0  0  0  0  0  0  0
   10.6299    3.5686    6.2161 C   0  0  2  0  0  0  0  0  0  0  0  0
   10.9549    3.2125    7.5543 O   0  0  0  0  0  0  0  0  0  0  0  0
    9.7976    4.8436    6.2354 C   0  0  0  0  0  0  0  0  0  0  0  0
    9.3233    5.2367    4.8354 C   0  0  0  0  0  0  0  0  0  0  0  0
    8.5561    4.1058    4.0885 C   0  0  1  0  0  0  0  0  0  0  0  0
    7.1865    3.9111    4.7860 C   0  0  0  0  0  0  0  0  0  0  0  0
    8.3701    4.4651    2.5669 C   0  0  1  0  0  0  0  0  0  0  0  0
    7.6600    5.7994    2.3208 C   0  0  0  0  0  0  0  0  0  0  0  0
    7.7828    6.1933    0.8542 C   0  0  0  0  0  0  0  0  0  0  0  0
    7.1795    5.1762   -0.1328 C   0  0  2  0  0  0  0  0  0  0  0  0
    7.7300    5.5029   -1.5466 C   0  0  0  0  0  0  0  0  0  0  0  0
    1.8924    8.5093   -4.3393 C   0  0  0  0  0  0  0  0  0  0  0  0
    1.0465    9.3760   -4.1836 O   0  0  0  0  0  0  0  0  0  0  0  0
    3.1682    8.8447   -4.6053 O   0  0  0  0  0  0  0  0  0  0  0  0
    1.4859    5.3977   -5.7395 H   0  0  0  0  0  0  0  0  0  0  0  0
    1.0896    6.9928   -6.4019 H   0  0  0  0  0  0  0  0  0  0  0  0
    2.7761    6.5559   -6.1087 H   0  0  0  0  0  0  0  0  0  0  0  0
    0.6155    6.8701   -3.9534 H   0  0  0  0  0  0  0  0  0  0  0  0
    3.6380    6.4802   -3.6374 H   0  0  0  0  0  0  0  0  0  0  0  0
    2.4374    5.2110   -3.4217 H   0  0  0  0  0  0  0  0  0  0  0  0
    1.3433    6.5232   -1.6068 H   0  0  0  0  0  0  0  0  0  0  0  0
    2.5436    7.7853   -1.7565 H   0  0  0  0  0  0  0  0  0  0  0  0
    3.0181    4.8685   -0.9943 H   0  0  0  0  0  0  0  0  0  0  0  0
    2.9764    6.2064    0.1315 H   0  0  0  0  0  0  0  0  0  0  0  0
    5.0900    5.9249   -2.0692 H   0  0  0  0  0  0  0  0  0  0  0  0
    4.8492    7.8908    0.2702 H   0  0  0  0  0  0  0  0  0  0  0  0
    4.6078    8.2750   -1.4421 H   0  0  0  0  0  0  0  0  0  0  0  0
    6.1902    7.8439   -0.8850 H   0  0  0  0  0  0  0  0  0  0  0  0
    5.2682    5.3262    0.9144 H   0  0  0  0  0  0  0  0  0  0  0  0
    4.6994    3.5582   -1.3781 H   0  0  0  0  0  0  0  0  0  0  0  0
    4.6269    3.2646    0.3615 H   0  0  0  0  0  0  0  0  0  0  0  0
    6.8494    2.8101   -1.5922 H   0  0  0  0  0  0  0  0  0  0  0  0
    6.4098    1.8671   -0.1942 H   0  0  0  0  0  0  0  0  0  0  0  0
    8.5897    3.5019   -0.1918 H   0  0  0  0  0  0  0  0  0  0  0  0
    6.6352    3.2284    2.1054 H   0  0  0  0  0  0  0  0  0  0  0  0
    9.3588    2.0195    1.4081 H   0  0  0  0  0  0  0  0  0  0  0  0
    6.8216    0.8559    1.9168 H   0  0  0  0  0  0  0  0  0  0  0  0
    9.3858    0.7674    3.4389 H   0  0  0  0  0  0  0  0  0  0  0  0
    7.8311    1.3457    3.9566 H   0  0  0  0  0  0  0  0  0  0  0  0
   10.3548    3.0214    3.5727 H   0  0  0  0  0  0  0  0  0  0  0  0
   10.5314    1.5437    5.5022 H   0  0  0  0  0  0  0  0  0  0  0  0
    9.0230    2.1151    6.1637 H   0  0  0  0  0  0  0  0  0  0  0  0
   11.5703    3.7590    5.6845 H   0  0  0  0  0  0  0  0  0  0  0  0
   11.5533    2.4467    7.5151 H   0  0  0  0  0  0  0  0  0  0  0  0
   10.3894    5.6606    6.6668 H   0  0  0  0  0  0  0  0  0  0  0  0
    8.9431    4.7231    6.9127 H   0  0  0  0  0  0  0  0  0  0  0  0
   10.1984    5.5359    4.2439 H   0  0  0  0  0  0  0  0  0  0  0  0
    8.6937    6.1284    4.9363 H   0  0  0  0  0  0  0  0  0  0  0  0
    7.2956    3.5756    5.8215 H   0  0  0  0  0  0  0  0  0  0  0  0
    6.5561    3.1717    4.2855 H   0  0  0  0  0  0  0  0  0  0  0  0
    6.6213    4.8488    4.8137 H   0  0  0  0  0  0  0  0  0  0  0  0
    9.3850    4.5714    2.1518 H   0  0  0  0  0  0  0  0  0  0  0  0
    8.1190    6.6002    2.9084 H   0  0  0  0  0  0  0  0  0  0  0  0
    6.6096    5.7491    2.6243 H   0  0  0  0  0  0  0  0  0  0  0  0
    8.8509    6.3231    0.6299 H   0  0  0  0  0  0  0  0  0  0  0  0
    7.3376    7.1827    0.7307 H   0  0  0  0  0  0  0  0  0  0  0  0
    7.2639    4.8938   -2.3271 H   0  0  0  0  0  0  0  0  0  0  0  0
    7.5794    6.5505   -1.8181 H   0  0  0  0  0  0  0  0  0  0  0  0
    8.8106    5.3229   -1.5935 H   0  0  0  0  0  0  0  0  0  0  0  0
    3.1580    9.8247   -4.6178 H   0  0  0  0  0  0  0  0  0  0  0  0
  1  2  1  0  0  0  0
  1 32  1  0  0  0  0
  1 33  1  0  0  0  0
  1 34  1  0  0  0  0
  2  3  1  0  0  0  0
  2 29  1  0  0  0  0
  2 35  1  0  0  0  0
  3  4  1  0  0  0  0
  3 36  1  0  0  0  0
  3 37  1  0  0  0  0
  4  5  1  0  0  0  0
  4 38  1  0  0  0  0
  4 39  1  0  0  0  0
  5 40  1  0  0  0  0
  5 41  1  0  0  0  0
  6  7  1  0  0  0  0
  6  5  1  0  0  0  0
  6 42  1  6  0  0  0
  7 43  1  0  0  0  0
  7 44  1  0  0  0  0
  7 45  1  0  0  0  0
  8  9  1  0  0  0  0
  8 27  1  0  0  0  0
  8  6  1  0  0  0  0
  8 46  1  1  0  0  0
  9 10  1  0  0  0  0
  9 47  1  0  0  0  0
  9 48  1  0  0  0  0
 10 11  1  0  0  0  0
 10 49  1  0  0  0  0
 10 50  1  0  0  0  0
 11 12  1  0  0  0  0
 11 27  1  0  0  0  0
 11 51  1  1  0  0  0
 12 13  1  0  0  0  0
 12 24  1  0  0  0  0
 12 52  1  6  0  0  0
 13 15  1  0  0  0  0
 13 14  1  0  0  0  0
 13 53  1  6  0  0  0
 14 54  1  0  0  0  0
 15 16  1  0  0  0  0
 15 55  1  0  0  0  0
 15 56  1  0  0  0  0
 16 17  1  0  0  0  0
 16 22  1  0  0  0  0
 16 57  1  6  0  0  0
 17 18  1  0  0  0  0
 17 58  1  0  0  0  0
 17 59  1  0  0  0  0
 18 20  1  0  0  0  0
 18 19  1  0  0  0  0
 18 60  1  6  0  0  0
 19 61  1  0  0  0  0
 20 21  1  0  0  0  0
 20 62  1  0  0  0  0
 20 63  1  0  0  0  0
 21 22  1  0  0  0  0
 21 64  1  0  0  0  0
 21 65  1  0  0  0  0
 22 24  1  0  0  0  0
 22 23  1  6  0  0  0
 23 66  1  0  0  0  0
 23 67  1  0  0  0  0
 23 68  1  0  0  0  0
 24 25  1  0  0  0  0
 24 69  1  1  0  0  0
 25 26  1  0  0  0  0
 25 70  1  0  0  0  0
 25 71  1  0  0  0  0
 26 27  1  0  0  0  0
 26 72  1  0  0  0  0
 26 73  1  0  0  0  0
 27 28  1  6  0  0  0
 28 74  1  0  0  0  0
 28 75  1  0  0  0  0
 28 76  1  0  0  0  0
 29 30  2  0  0  0  0
 29 31  1  0  0  0  0
 31 77  1  0  0  0  0
M  END
$$$$
