CHEBI:18099
 OpenBabel04242423323D

 19 19  0  0  0  0  0  0  0  0999 V2000
    2.2773   -0.0682    0.1222 O   0  0  0  0  0  0  0  0  0  0  0  0
    0.9316   -0.0270   -0.3397 C   0  0  0  0  0  0  0  0  0  0  0  0
    0.2550    1.2483    0.1612 C   0  0  0  0  0  0  0  0  0  0  0  0
   -1.2262    1.2788   -0.2011 C   0  0  0  0  0  0  0  0  0  0  0  0
   -1.9509    0.0281    0.2902 C   0  0  0  0  0  0  0  0  0  0  0  0
   -1.2748   -1.2481   -0.2047 C   0  0  0  0  0  0  0  0  0  0  0  0
    0.2062   -1.2752    0.1584 C   0  0  0  0  0  0  0  0  0  0  0  0
    2.7250    0.7289   -0.2090 H   0  0  0  0  0  0  0  0  0  0  0  0
    0.9541   -0.0314   -1.4361 H   0  0  0  0  0  0  0  0  0  0  0  0
    0.7615    2.1265   -0.2569 H   0  0  0  0  0  0  0  0  0  0  0  0
    0.3750    1.3271    1.2496 H   0  0  0  0  0  0  0  0  0  0  0  0
   -1.3334    1.3581   -1.2899 H   0  0  0  0  0  0  0  0  0  0  0  0
   -1.6939    2.1701    0.2318 H   0  0  0  0  0  0  0  0  0  0  0  0
   -2.9928    0.0486   -0.0488 H   0  0  0  0  0  0  0  0  0  0  0  0
   -1.9715    0.0269    1.3870 H   0  0  0  0  0  0  0  0  0  0  0  0
   -1.3845   -1.3200   -1.2938 H   0  0  0  0  0  0  0  0  0  0  0  0
   -1.7766   -2.1221    0.2254 H   0  0  0  0  0  0  0  0  0  0  0  0
    0.6799   -2.1712   -0.2604 H   0  0  0  0  0  0  0  0  0  0  0  0
    0.3215   -1.3607    1.2469 H   0  0  0  0  0  0  0  0  0  0  0  0
  1  2  1  0  0  0  0
  1  8  1  0  0  0  0
  2  3  1  0  0  0  0
  2  7  1  0  0  0  0
  2  9  1  0  0  0  0
  3  4  1  0  0  0  0
  3 10  1  0  0  0  0
  3 11  1  0  0  0  0
  4  5  1  0  0  0  0
  4 12  1  0  0  0  0
  4 13  1  0  0  0  0
  5  6  1  0  0  0  0
  5 14  1  0  0  0  0
  5 15  1  0  0  0  0
  6  7  1  0  0  0  0
  6 16  1  0  0  0  0
  6 17  1  0  0  0  0
  7 18  1  0  0  0  0
  7 19  1  0  0  0  0
M  END
$$$$
