CHEBI:2453
 OpenBabel04242410373D

 27 28  0  0  0  0  0  0  0  0999 V2000
    0.3962   -0.4957   -0.1335 N   0  0  0  0  0  0  0  0  0  0  0  0
    1.5541    0.2097   -0.1828 C   0  0  0  0  0  0  0  0  0  0  0  0
    2.7007   -0.4155   -0.1409 N   0  0  0  0  0  0  0  0  0  0  0  0
    3.7645    0.4222   -0.1949 C   0  0  0  0  0  0  0  0  0  0  0  0
    3.7688    1.7959   -0.2856 C   0  0  0  0  0  0  0  0  0  0  0  0
    5.0461    2.2933   -0.3198 N   0  0  0  0  0  0  0  0  0  0  0  0
    5.8149    1.2230   -0.2550 C   0  0  0  0  0  0  0  0  0  0  0  0
    5.0839    0.0660   -0.1774 N   0  0  0  0  0  0  0  0  0  0  0  0
    5.5747   -1.2958   -0.1030 C   0  0  0  0  0  0  0  0  0  0  0  0
    7.0032   -1.2973   -0.0732 O   0  0  0  0  0  0  0  0  0  0  0  0
    7.5142   -2.6342   -0.0126 C   0  0  0  0  0  0  0  0  0  0  0  0
    9.0367   -2.5595    0.0188 C   0  0  0  0  0  0  0  0  0  0  0  0
    9.4603   -1.8659    1.1903 O   0  0  0  0  0  0  0  0  0  0  0  0
    2.4911    2.4713   -0.3365 C   0  0  0  0  0  0  0  0  0  0  0  0
    2.3181    3.6823   -0.4326 O   0  0  0  0  0  0  0  0  0  0  0  0
    1.4267    1.5819   -0.2676 N   0  0  0  0  0  0  0  0  0  0  0  0
    0.5449   -1.4614    0.1422 H   0  0  0  0  0  0  0  0  0  0  0  0
   -0.3791   -0.0657    0.3534 H   0  0  0  0  0  0  0  0  0  0  0  0
    6.8976    1.2298   -0.2629 H   0  0  0  0  0  0  0  0  0  0  0  0
    5.2121   -1.8257   -0.9903 H   0  0  0  0  0  0  0  0  0  0  0  0
    5.1761   -1.7420    0.8144 H   0  0  0  0  0  0  0  0  0  0  0  0
    7.1826   -3.1983   -0.8906 H   0  0  0  0  0  0  0  0  0  0  0  0
    7.1434   -3.1132    0.9005 H   0  0  0  0  0  0  0  0  0  0  0  0
    9.4211   -2.0136   -0.8485 H   0  0  0  0  0  0  0  0  0  0  0  0
    9.4757   -3.5608    0.0345 H   0  0  0  0  0  0  0  0  0  0  0  0
    8.9706   -1.0213    1.1893 H   0  0  0  0  0  0  0  0  0  0  0  0
    0.5165    2.0026   -0.3437 H   0  0  0  0  0  0  0  0  0  0  0  0
  1  2  1  0  0  0  0
  1 17  1  0  0  0  0
  1 18  1  0  0  0  0
  2  3  2  0  0  0  0
  2 16  1  0  0  0  0
  3  4  1  0  0  0  0
  4  5  2  0  0  0  0
  4  8  1  0  0  0  0
  5  6  1  0  0  0  0
  5 14  1  0  0  0  0
  6  7  2  0  0  0  0
  7  8  1  0  0  0  0
  7 19  1  0  0  0  0
  8  9  1  0  0  0  0
  9 10  1  0  0  0  0
  9 20  1  0  0  0  0
  9 21  1  0  0  0  0
 10 11  1  0  0  0  0
 11 12  1  0  0  0  0
 11 22  1  0  0  0  0
 11 23  1  0  0  0  0
 12 13  1  0  0  0  0
 12 24  1  0  0  0  0
 12 25  1  0  0  0  0
 13 26  1  0  0  0  0
 14 15  2  0  0  0  0
 14 16  1  0  0  0  0
 16 27  1  0  0  0  0
M  END
$$$$
