CHEBI:18062
 OpenBabel04242423283D

 22 21  0  0  0  0  0  0  0  0999 V2000
    1.3275    1.6210    1.9114 N   0  0  0  0  0  0  0  0  0  0  0  0
    0.7540    1.9773    0.8204 C   0  0  0  0  0  0  0  0  0  0  0  0
   -0.5807    2.1124    0.7022 N   0  0  0  0  0  0  0  0  0  0  0  0
    1.3850    2.2863   -0.3337 N   0  0  0  0  0  0  0  0  0  0  0  0
    2.8007    2.0354   -0.5583 C   0  0  0  0  0  0  0  0  0  0  0  0
    3.5883    3.3451   -0.5529 C   0  0  0  0  0  0  0  0  0  0  0  0
    3.6844    4.0179    0.8141 C   0  0  0  0  0  0  0  0  0  0  0  0
    4.5547    3.2241    1.7592 C   0  0  0  0  0  0  0  0  0  0  0  0
    3.8865    2.4269    2.6352 N   0  0  0  0  0  0  0  0  0  0  0  0
    5.7799    3.2606    1.7327 O   0  0  0  0  0  0  0  0  0  0  0  0
    0.6070    1.4205    2.6103 H   0  0  0  0  0  0  0  0  0  0  0  0
   -1.0926    2.1275    1.5750 H   0  0  0  0  0  0  0  0  0  0  0  0
   -0.8498    2.8969    0.1194 H   0  0  0  0  0  0  0  0  0  0  0  0
    0.8222    2.1136   -1.1586 H   0  0  0  0  0  0  0  0  0  0  0  0
    2.9053    1.5788   -1.5500 H   0  0  0  0  0  0  0  0  0  0  0  0
    3.2121    1.3081    0.1493 H   0  0  0  0  0  0  0  0  0  0  0  0
    3.1267    4.0484   -1.2573 H   0  0  0  0  0  0  0  0  0  0  0  0
    4.5999    3.1413   -0.9259 H   0  0  0  0  0  0  0  0  0  0  0  0
    2.6954    4.1849    1.2533 H   0  0  0  0  0  0  0  0  0  0  0  0
    4.1442    5.0077    0.7064 H   0  0  0  0  0  0  0  0  0  0  0  0
    2.9228    2.1377    2.4280 H   0  0  0  0  0  0  0  0  0  0  0  0
    4.4377    1.7879    3.1896 H   0  0  0  0  0  0  0  0  0  0  0  0
  1  2  2  0  0  0  0
  1 11  1  0  0  0  0
  2  3  1  0  0  0  0
  2  4  1  0  0  0  0
  3 12  1  0  0  0  0
  3 13  1  0  0  0  0
  4  5  1  0  0  0  0
  4 14  1  0  0  0  0
  5  6  1  0  0  0  0
  5 15  1  0  0  0  0
  5 16  1  0  0  0  0
  6  7  1  0  0  0  0
  6 17  1  0  0  0  0
  6 18  1  0  0  0  0
  7  8  1  0  0  0  0
  7 19  1  0  0  0  0
  7 20  1  0  0  0  0
  8  9  1  0  0  0  0
  8 10  2  0  0  0  0
  9 21  1  0  0  0  0
  9 22  1  0  0  0  0
M  END
$$$$
