CHEBI:15649
 OpenBabel04242413003D

 32 35  0  0  1  0  0  0  0  0999 V2000
    2.0377    0.9091    0.0464 O   0  0  0  0  0  0  0  0  0  0  0  0
    2.5916   -0.3216    0.2442 C   0  0  0  0  0  0  0  0  0  0  0  0
    2.9177   -0.7706    1.5230 C   0  0  0  0  0  0  0  0  0  0  0  0
    3.4859   -2.0368    1.6876 C   0  0  0  0  0  0  0  0  0  0  0  0
    3.7616   -2.8311    0.5692 C   0  0  0  0  0  0  0  0  0  0  0  0
    3.4501   -2.3422   -0.7031 C   0  0  0  0  0  0  0  0  0  0  0  0
    2.8354   -1.1085   -0.8741 C   0  0  0  0  0  0  0  0  0  0  0  0
    3.7551   -3.0851   -1.8136 O   0  0  0  0  0  0  0  0  0  0  0  0
    5.1138   -3.5559   -1.7269 C   0  0  0  0  0  0  0  0  0  0  0  0
    5.3822   -4.4483   -0.5039 C   0  0  1  0  0  0  0  0  0  0  0  0
    5.3881   -5.8283   -0.9050 O   0  0  0  0  0  0  0  0  0  0  0  0
    6.6409   -4.1653    0.2520 C   0  0  0  0  0  0  0  0  0  0  0  0
    7.9283   -3.9172   -0.1969 C   0  0  0  0  0  0  0  0  0  0  0  0
    8.9358   -3.7164    0.7538 C   0  0  0  0  0  0  0  0  0  0  0  0
    8.6385   -3.7914    2.1227 C   0  0  0  0  0  0  0  0  0  0  0  0
    9.6071   -3.6099    3.0663 O   0  0  0  0  0  0  0  0  0  0  0  0
    7.3484   -4.0496    2.5692 C   0  0  0  0  0  0  0  0  0  0  0  0
    6.3690   -4.2148    1.6145 C   0  0  0  0  0  0  0  0  0  0  0  0
    5.0488   -4.4365    1.9095 O   0  0  0  0  0  0  0  0  0  0  0  0
    4.3625   -4.2169    0.6443 C   0  0  1  0  0  0  0  0  0  0  0  0
    1.9657    1.3586    0.9043 H   0  0  0  0  0  0  0  0  0  0  0  0
    2.7363   -0.1549    2.3986 H   0  0  0  0  0  0  0  0  0  0  0  0
    3.7281   -2.3886    2.6882 H   0  0  0  0  0  0  0  0  0  0  0  0
    2.5806   -0.7510   -1.8663 H   0  0  0  0  0  0  0  0  0  0  0  0
    5.7719   -2.6766   -1.7489 H   0  0  0  0  0  0  0  0  0  0  0  0
    5.3091   -4.1112   -2.6519 H   0  0  0  0  0  0  0  0  0  0  0  0
    5.9432   -6.3198   -0.2730 H   0  0  0  0  0  0  0  0  0  0  0  0
    8.1577   -3.8749   -1.2576 H   0  0  0  0  0  0  0  0  0  0  0  0
    9.9466   -3.5070    0.4162 H   0  0  0  0  0  0  0  0  0  0  0  0
   10.4497   -3.4250    2.6207 H   0  0  0  0  0  0  0  0  0  0  0  0
    7.1184   -4.1040    3.6271 H   0  0  0  0  0  0  0  0  0  0  0  0
    3.5473   -4.9505    0.5944 H   0  0  0  0  0  0  0  0  0  0  0  0
  1  2  1  0  0  0  0
  1 21  1  0  0  0  0
  2  3  1  0  0  0  0
  2  7  2  0  0  0  0
  3  4  2  0  0  0  0
  3 22  1  0  0  0  0
  4  5  1  0  0  0  0
  4 23  1  0  0  0  0
  5  6  2  0  0  0  0
  5 20  1  0  0  0  0
  6  7  1  0  0  0  0
  6  8  1  0  0  0  0
  7 24  1  0  0  0  0
  8  9  1  0  0  0  0
  9 10  1  0  0  0  0
  9 25  1  0  0  0  0
  9 26  1  0  0  0  0
 10 11  1  6  0  0  0
 10 12  1  0  0  0  0
 10 20  1  0  0  0  0
 11 27  1  0  0  0  0
 12 13  1  0  0  0  0
 12 18  2  0  0  0  0
 13 14  2  0  0  0  0
 13 28  1  0  0  0  0
 14 15  1  0  0  0  0
 14 29  1  0  0  0  0
 15 16  1  0  0  0  0
 15 17  2  0  0  0  0
 16 30  1  0  0  0  0
 17 18  1  0  0  0  0
 17 31  1  0  0  0  0
 18 19  1  0  0  0  0
 19 20  1  0  0  0  0
 20 32  1  6  0  0  0
M  END
$$$$
