CHEBI:17230
 OpenBabel04242416033D

 17 16  0  0  0  0  0  0  0  0999 V2000
    3.1248   -0.1127    0.4252 N   0  0  0  0  0  0  0  0  0  0  0  0
    3.3217    0.5606   -0.9021 C   0  0  0  0  0  0  0  0  0  0  0  0
    1.9581    0.8943   -1.5189 C   0  0  0  0  0  0  0  0  0  0  0  0
    1.9778    1.4386   -2.9512 C   0  0  0  0  0  0  0  0  0  0  0  0
    2.7147    0.2855   -4.1451 S   0  0  0  0  0  0  0  0  0  0  0  0
    4.1866    1.8147   -0.6670 C   0  0  0  0  0  0  0  0  0  0  0  0
    4.3923    2.7005   -1.4798 O   0  0  0  0  0  0  0  0  0  0  0  0
    4.7348    1.8033    0.5767 O   0  0  0  0  0  0  0  0  0  0  0  0
    2.8149   -1.0720    0.2375 H   0  0  0  0  0  0  0  0  0  0  0  0
    2.3180    0.3182    0.8909 H   0  0  0  0  0  0  0  0  0  0  0  0
    3.9082   -0.1235   -1.5227 H   0  0  0  0  0  0  0  0  0  0  0  0
    1.4512    1.6401   -0.8912 H   0  0  0  0  0  0  0  0  0  0  0  0
    1.3225   -0.0018   -1.4995 H   0  0  0  0  0  0  0  0  0  0  0  0
    2.4950    2.3988   -3.0167 H   0  0  0  0  0  0  0  0  0  0  0  0
    0.9442    1.6156   -3.2681 H   0  0  0  0  0  0  0  0  0  0  0  0
    3.9895    0.6622   -3.9554 H   0  0  0  0  0  0  0  0  0  0  0  0
    4.4133    0.9668    1.0004 H   0  0  0  0  0  0  0  0  0  0  0  0
  1  2  1  0  0  0  0
  1  9  1  0  0  0  0
  1 10  1  0  0  0  0
  2  3  1  0  0  0  0
  2  6  1  0  0  0  0
  2 11  1  0  0  0  0
  3  4  1  0  0  0  0
  3 12  1  0  0  0  0
  3 13  1  0  0  0  0
  4  5  1  0  0  0  0
  4 14  1  0  0  0  0
  4 15  1  0  0  0  0
  5 16  1  0  0  0  0
  6  7  2  0  0  0  0
  6  8  1  0  0  0  0
  8 17  1  0  0  0  0
M  END
$$$$
