CHEBI:18374
 OpenBabel04252409283D

 59 62  0  0  1  0  0  0  0  0999 V2000
    0.7244   -0.6517    0.3441 N   0  0  0  0  0  0  0  0  0  0  0  0
    1.9799   -0.3416    0.2537 C   0  0  0  0  0  0  0  0  0  0  0  0
    2.9234   -1.4467    0.1900 C   0  0  0  0  0  0  0  0  0  0  0  0
    2.6224   -2.7826    0.2183 N   0  0  0  0  0  0  0  0  0  0  0  0
    3.7924   -3.3669    0.0621 C   0  0  0  0  0  0  0  0  0  0  0  0
    4.8199   -2.4607   -0.1026 N   0  0  0  0  0  0  0  0  0  0  0  0
    6.1920   -2.8493   -0.3489 C   0  0  2  0  0  0  0  0  0  0  0  0
    6.8493   -2.9851    0.9295 O   0  0  0  0  0  0  0  0  0  0  0  0
    8.1478   -2.3691    0.8367 C   0  0  2  0  0  0  0  0  0  0  0  0
    8.1315   -1.0579    1.6221 C   0  0  0  0  0  0  0  0  0  0  0  0
    9.4480   -0.5376    1.7021 O   0  0  0  0  0  0  0  0  0  0  0  0
    9.6484    0.8830    2.4090 P   0  0  0  0  0  0  0  0  0  0  0  0
   11.0536    1.2689    2.7131 O   0  0  0  0  0  0  0  0  0  0  0  0
    8.9434    1.9296    1.4338 O   0  0  0  0  0  0  0  0  0  0  0  0
    8.7030    0.8972    3.6909 O   0  0  0  0  0  0  0  0  0  0  0  0
    8.4365   -2.1808   -0.6522 C   0  0  1  0  0  0  0  0  0  0  0  0
    8.9393   -3.3992   -1.2379 O   0  0  0  0  0  0  0  0  0  0  0  0
    7.0523   -1.9382   -1.2346 C   0  0  1  0  0  0  0  0  0  0  0  0
    7.0096   -2.2969   -2.6184 O   0  0  0  0  0  0  0  0  0  0  0  0
    4.2727   -1.2147    0.0304 C   0  0  0  0  0  0  0  0  0  0  0  0
    4.9043   -0.0169   -0.0326 N   0  0  0  0  0  0  0  0  0  0  0  0
    4.0419    0.9614    0.0343 C   0  0  0  0  0  0  0  0  0  0  0  0
    2.6478    0.8795    0.1635 N   0  0  0  0  0  0  0  0  0  0  0  0
    1.9102    2.1396    0.2404 C   0  0  2  0  0  0  0  0  0  0  0  0
    1.2229    2.2974    1.4922 O   0  0  0  0  0  0  0  0  0  0  0  0
    0.0333    3.0913    1.2524 C   0  0  2  0  0  0  0  0  0  0  0  0
   -1.1874    2.3105    1.7400 C   0  0  0  0  0  0  0  0  0  0  0  0
   -1.5253    1.3353    0.7797 O   0  0  0  0  0  0  0  0  0  0  0  0
   -2.1884   -0.0301    1.2747 P   0  0  0  0  0  0  0  0  0  0  0  0
   -1.7467   -0.6176    2.5670 O   0  0  0  0  0  0  0  0  0  0  0  0
   -3.7487    0.3081    1.2058 O   0  0  0  0  0  0  0  0  0  0  0  0
   -1.9950   -0.9476   -0.0155 O   0  0  0  0  0  0  0  0  0  0  0  0
    0.0023    3.4210   -0.2463 C   0  0  1  0  0  0  0  0  0  0  0  0
    0.6368    4.6949   -0.4923 O   0  0  0  0  0  0  0  0  0  0  0  0
    0.8824    2.3457   -0.8733 C   0  0  1  0  0  0  0  0  0  0  0  0
    1.4713    2.8055   -2.0951 O   0  0  0  0  0  0  0  0  0  0  0  0
    0.7345   -1.6920    0.4426 H   0  0  0  0  0  0  0  0  0  0  0  0
    3.9613   -4.4365    0.0505 H   0  0  0  0  0  0  0  0  0  0  0  0
    6.1522   -3.8510   -0.7973 H   0  0  0  0  0  0  0  0  0  0  0  0
    8.8754   -3.0563    1.2837 H   0  0  0  0  0  0  0  0  0  0  0  0
    7.7557   -1.2511    2.6331 H   0  0  0  0  0  0  0  0  0  0  0  0
    7.4637   -0.3236    1.1619 H   0  0  0  0  0  0  0  0  0  0  0  0
    9.6101    2.3836    0.8854 H   0  0  0  0  0  0  0  0  0  0  0  0
    8.9791    1.5830    4.3248 H   0  0  0  0  0  0  0  0  0  0  0  0
    9.1497   -1.3857   -0.8871 H   0  0  0  0  0  0  0  0  0  0  0  0
    9.8089   -3.5749   -0.8322 H   0  0  0  0  0  0  0  0  0  0  0  0
    6.8050   -0.8802   -1.1523 H   0  0  0  0  0  0  0  0  0  0  0  0
    7.6712   -3.0134   -2.7205 H   0  0  0  0  0  0  0  0  0  0  0  0
    4.4272    1.9940   -0.0126 H   0  0  0  0  0  0  0  0  0  0  0  0
    2.6214    2.9758    0.1946 H   0  0  0  0  0  0  0  0  0  0  0  0
    0.1389    3.9972    1.8597 H   0  0  0  0  0  0  0  0  0  0  0  0
   -2.0464    2.9788    1.8500 H   0  0  0  0  0  0  0  0  0  0  0  0
   -0.9725    1.8437    2.7066 H   0  0  0  0  0  0  0  0  0  0  0  0
   -4.2692   -0.4820    1.4344 H   0  0  0  0  0  0  0  0  0  0  0  0
   -1.0240   -0.9853   -0.1796 H   0  0  0  0  0  0  0  0  0  0  0  0
   -0.9971    3.4715   -0.6884 H   0  0  0  0  0  0  0  0  0  0  0  0
    0.0189    5.3852   -0.1857 H   0  0  0  0  0  0  0  0  0  0  0  0
    0.3051    1.4437   -1.0871 H   0  0  0  0  0  0  0  0  0  0  0  0
    1.5026    3.7822   -2.0168 H   0  0  0  0  0  0  0  0  0  0  0  0
  1  2  2  0  0  0  0
  1 37  1  0  0  0  0
  2  3  1  0  0  0  0
  2 23  1  0  0  0  0
  3  4  1  0  0  0  0
  3 20  2  0  0  0  0
  4  5  2  0  0  0  0
  5  6  1  0  0  0  0
  5 38  1  0  0  0  0
  6  7  1  0  0  0  0
  6 20  1  0  0  0  0
  7  8  1  0  0  0  0
  7 18  1  0  0  0  0
  7 39  1  6  0  0  0
  8  9  1  0  0  0  0
  9 10  1  0  0  0  0
  9 16  1  0  0  0  0
  9 40  1  1  0  0  0
 10 11  1  0  0  0  0
 10 41  1  0  0  0  0
 10 42  1  0  0  0  0
 11 12  1  0  0  0  0
 12 13  2  0  0  0  0
 12 14  1  0  0  0  0
 12 15  1  0  0  0  0
 14 43  1  0  0  0  0
 15 44  1  0  0  0  0
 16 17  1  0  0  0  0
 16 18  1  0  0  0  0
 16 45  1  6  0  0  0
 17 46  1  0  0  0  0
 18 19  1  0  0  0  0
 18 47  1  1  0  0  0
 19 48  1  0  0  0  0
 20 21  1  0  0  0  0
 21 22  2  0  0  0  0
 22 23  1  0  0  0  0
 22 49  1  0  0  0  0
 23 24  1  0  0  0  0
 24 25  1  0  0  0  0
 24 35  1  0  0  0  0
 24 50  1  6  0  0  0
 25 26  1  0  0  0  0
 26 27  1  0  0  0  0
 26 33  1  0  0  0  0
 26 51  1  1  0  0  0
 27 28  1  0  0  0  0
 27 52  1  0  0  0  0
 27 53  1  0  0  0  0
 28 29  1  0  0  0  0
 29 30  2  0  0  0  0
 29 31  1  0  0  0  0
 29 32  1  0  0  0  0
 31 54  1  0  0  0  0
 32 55  1  0  0  0  0
 33 34  1  0  0  0  0
 33 35  1  0  0  0  0
 33 56  1  6  0  0  0
 34 57  1  0  0  0  0
 35 36  1  0  0  0  0
 35 58  1  6  0  0  0
 36 59  1  0  0  0  0
M  END
$$$$
