CHEBI:17796
 OpenBabel04242417363D

 24 23  0  0  1  0  0  0  0  0999 V2000
    6.5462   -0.2575    1.4182 O   0  0  0  0  0  0  0  0  0  0  0  0
    5.5450   -0.3192    0.6609 C   0  0  0  0  0  0  0  0  0  0  0  0
    5.0323   -1.3066    0.0496 O   0  5  0  0  0  0  0  0  0  0  0  0
    4.8350    1.0133    0.3311 C   0  0  2  0  0  0  0  0  0  0  0  0
    4.0924    0.8531   -0.9193 O   0  0  0  0  0  0  0  0  0  0  0  0
    5.7539    2.2330    0.2363 C   0  0  1  0  0  0  0  0  0  0  0  0
    4.8795    3.3878    0.1126 O   0  0  0  0  0  0  0  0  0  0  0  0
    6.7058    2.2764   -0.9859 C   0  0  2  0  0  0  0  0  0  0  0  0
    5.9739    2.1177   -2.2330 O   0  0  0  0  0  0  0  0  0  0  0  0
    7.8623    1.2597   -1.0063 C   0  0  1  0  0  0  0  0  0  0  0  0
    8.5706    1.4482   -2.2642 O   0  0  0  0  0  0  0  0  0  0  0  0
    8.8848    1.4551    0.1153 C   0  0  0  0  0  0  0  0  0  0  0  0
    9.5977    2.6827   -0.0954 O   0  0  0  0  0  0  0  0  0  0  0  0
    4.0760    1.1803    1.1047 H   0  0  0  0  0  0  0  0  0  0  0  0
    3.9910   -0.1354   -0.9518 H   0  0  0  0  0  0  0  0  0  0  0  0
    6.3168    2.3743    1.1635 H   0  0  0  0  0  0  0  0  0  0  0  0
    4.3132    3.1764   -0.6560 H   0  0  0  0  0  0  0  0  0  0  0  0
    7.1253    3.2875   -1.0605 H   0  0  0  0  0  0  0  0  0  0  0  0
    5.2130    1.5281   -2.0244 H   0  0  0  0  0  0  0  0  0  0  0  0
    7.4876    0.2339   -1.0282 H   0  0  0  0  0  0  0  0  0  0  0  0
    7.8440    1.5722   -2.9117 H   0  0  0  0  0  0  0  0  0  0  0  0
    9.6295    0.6529    0.0869 H   0  0  0  0  0  0  0  0  0  0  0  0
    8.4393    1.4793    1.1110 H   0  0  0  0  0  0  0  0  0  0  0  0
    9.7763    2.6795   -1.0581 H   0  0  0  0  0  0  0  0  0  0  0  0
  1  2  2  0  0  0  0
  2  3  1  0  0  0  0
  4  6  1  0  0  0  0
  4  5  1  0  0  0  0
  4  2  1  0  0  0  0
  4 14  1  1  0  0  0
  5 15  1  0  0  0  0
  6  7  1  0  0  0  0
  6 16  1  6  0  0  0
  7 17  1  0  0  0  0
  8 10  1  0  0  0  0
  8  9  1  0  0  0  0
  8  6  1  0  0  0  0
  8 18  1  6  0  0  0
  9 19  1  0  0  0  0
 10 11  1  0  0  0  0
 10 12  1  0  0  0  0
 10 20  1  1  0  0  0
 11 21  1  0  0  0  0
 12 13  1  0  0  0  0
 12 22  1  0  0  0  0
 12 23  1  0  0  0  0
 13 24  1  0  0  0  0
M  CHG  1   3  -1
M  END
$$$$
