CHEBI:17659
 OpenBabel04242417033D

 39 40  0  0  1  0  0  0  0  0999 V2000
    0.5010    0.9891   -0.1678 O   0  0  0  0  0  0  0  0  0  0  0  0
    1.6326    0.5314   -0.0758 C   0  0  0  0  0  0  0  0  0  0  0  0
    2.8050    1.4110    0.0483 C   0  0  0  0  0  0  0  0  0  0  0  0
    4.0191    0.8620    0.1286 C   0  0  0  0  0  0  0  0  0  0  0  0
    4.2072   -0.5063    0.0885 N   0  0  0  0  0  0  0  0  0  0  0  0
    5.5444   -1.1020    0.1286 C   0  0  2  0  0  0  0  0  0  0  0  0
    6.5083   -0.1850    0.6741 O   0  0  0  0  0  0  0  0  0  0  0  0
    7.7484   -0.3410   -0.0598 C   0  0  2  0  0  0  0  0  0  0  0  0
    8.0991    1.0005   -0.7041 C   0  0  0  0  0  0  0  0  0  0  0  0
    7.1103    1.3735   -1.6537 O   0  0  0  0  0  0  0  0  0  0  0  0
    7.2913    2.8095   -2.3553 P   0  0  0  0  0  0  0  0  0  0  0  0
    8.5500    2.9386   -3.1419 O   0  0  0  0  0  0  0  0  0  0  0  0
    5.9832    2.8746   -3.2724 O   0  0  0  0  0  0  0  0  0  0  0  0
    7.0370    3.8662   -1.2029 O   0  0  0  0  0  0  0  0  0  0  0  0
    7.1919    5.4290   -1.3789 P   0  0  0  0  0  0  0  0  0  0  0  0
    8.5198    5.9624   -1.7828 O   0  0  0  0  0  0  0  0  0  0  0  0
    5.9824    5.9173   -2.2925 O   0  0  0  0  0  0  0  0  0  0  0  0
    6.7483    6.0033    0.0472 O   0  0  0  0  0  0  0  0  0  0  0  0
    7.5467   -1.4687   -1.0698 C   0  0  1  0  0  0  0  0  0  0  0  0
    7.9830   -2.7115   -0.4948 O   0  0  0  0  0  0  0  0  0  0  0  0
    6.0436   -1.5175   -1.2636 C   0  0  1  0  0  0  0  0  0  0  0  0
    5.6481   -2.8291   -1.6797 O   0  0  0  0  0  0  0  0  0  0  0  0
    3.1404   -1.3756   -0.0923 C   0  0  0  0  0  0  0  0  0  0  0  0
    3.2808   -2.5842   -0.2791 O   0  0  0  0  0  0  0  0  0  0  0  0
    1.8965   -0.8070   -0.0991 N   0  0  0  0  0  0  0  0  0  0  0  0
    2.6347    2.4791    0.0661 H   0  0  0  0  0  0  0  0  0  0  0  0
    4.8998    1.4910    0.2199 H   0  0  0  0  0  0  0  0  0  0  0  0
    5.5040   -1.9742    0.7945 H   0  0  0  0  0  0  0  0  0  0  0  0
    8.5234   -0.5973    0.6713 H   0  0  0  0  0  0  0  0  0  0  0  0
    9.0705    0.9377   -1.2052 H   0  0  0  0  0  0  0  0  0  0  0  0
    8.1468    1.7755    0.0686 H   0  0  0  0  0  0  0  0  0  0  0  0
    6.1803    2.5894   -4.1835 H   0  0  0  0  0  0  0  0  0  0  0  0
    6.0374    6.8716   -2.4796 H   0  0  0  0  0  0  0  0  0  0  0  0
    7.5232    6.1480    0.6213 H   0  0  0  0  0  0  0  0  0  0  0  0
    8.1020   -1.3382   -2.0031 H   0  0  0  0  0  0  0  0  0  0  0  0
    7.4733   -3.4018   -0.9712 H   0  0  0  0  0  0  0  0  0  0  0  0
    5.7249   -0.7991   -2.0267 H   0  0  0  0  0  0  0  0  0  0  0  0
    4.7249   -2.9683   -1.3708 H   0  0  0  0  0  0  0  0  0  0  0  0
    1.1097   -1.4239   -0.2266 H   0  0  0  0  0  0  0  0  0  0  0  0
  1  2  2  0  0  0  0
  2  3  1  0  0  0  0
  2 25  1  0  0  0  0
  3  4  2  0  0  0  0
  3 26  1  0  0  0  0
  4  5  1  0  0  0  0
  4 27  1  0  0  0  0
  5  6  1  0  0  0  0
  5 23  1  0  0  0  0
  6  7  1  0  0  0  0
  6 21  1  0  0  0  0
  6 28  1  1  0  0  0
  7  8  1  0  0  0  0
  8  9  1  0  0  0  0
  8 19  1  0  0  0  0
  8 29  1  1  0  0  0
  9 10  1  0  0  0  0
  9 30  1  0  0  0  0
  9 31  1  0  0  0  0
 10 11  1  0  0  0  0
 11 12  2  0  0  0  0
 11 13  1  0  0  0  0
 11 14  1  0  0  0  0
 13 32  1  0  0  0  0
 14 15  1  0  0  0  0
 15 16  2  0  0  0  0
 15 17  1  0  0  0  0
 15 18  1  0  0  0  0
 17 33  1  0  0  0  0
 18 34  1  0  0  0  0
 19 20  1  0  0  0  0
 19 21  1  0  0  0  0
 19 35  1  6  0  0  0
 20 36  1  0  0  0  0
 21 22  1  0  0  0  0
 21 37  1  6  0  0  0
 22 38  1  0  0  0  0
 23 24  2  0  0  0  0
 23 25  1  0  0  0  0
 25 39  1  0  0  0  0
M  END
$$$$
