CHEBI:15391
 OpenBabel04242411483D

 38 40  0  0  1  0  0  0  0  0999 V2000
    1.3249    1.2461    0.2674 C   0  0  0  0  0  0  0  0  0  0  0  0
    2.7317    0.9961    0.2388 O   0  0  0  0  0  0  0  0  0  0  0  0
    3.1728    0.1606    1.2144 C   0  0  0  0  0  0  0  0  0  0  0  0
    2.4603   -0.3566    2.0594 O   0  0  0  0  0  0  0  0  0  0  0  0
    4.6387   -0.0657    1.1186 C   0  0  0  0  0  0  0  0  0  0  0  0
    5.3579    0.5867    0.1890 C   0  0  0  0  0  0  0  0  0  0  0  0
    6.8139    0.3935    0.0774 C   0  0  0  0  0  0  0  0  0  0  0  0
    7.4615    0.9720   -0.7856 O   0  0  0  0  0  0  0  0  0  0  0  0
    7.4693   -0.5204    1.0310 C   0  0  0  0  0  0  0  0  0  0  0  0
    6.7666   -1.1804    1.9681 C   0  0  0  0  0  0  0  0  0  0  0  0
    7.3308   -2.0442    2.8977 O   0  0  0  0  0  0  0  0  0  0  0  0
    8.7260   -1.9214    3.1559 C   0  0  0  0  0  0  0  0  0  0  0  0
    5.2458   -1.0217    2.1193 C   0  0  2  0  0  0  0  0  0  0  0  0
    4.6358   -2.3348    1.9939 O   0  0  0  0  0  0  0  0  0  0  0  0
    4.1709   -2.6444    3.2524 C   0  0  0  0  0  0  0  0  0  0  0  0
    3.5482   -3.8428    3.5487 C   0  0  0  0  0  0  0  0  0  0  0  0
    3.1058   -4.0595    4.8631 C   0  0  0  0  0  0  0  0  0  0  0  0
    2.4126   -5.3390    5.2343 C   0  0  0  0  0  0  0  0  0  0  0  0
    3.3190   -3.0702    5.8503 C   0  0  0  0  0  0  0  0  0  0  0  0
    3.9455   -1.8646    5.5272 C   0  0  0  0  0  0  0  0  0  0  0  0
    4.1612   -0.9123    6.4722 O   0  0  0  0  0  0  0  0  0  0  0  0
    4.3487   -1.6726    4.2228 C   0  0  0  0  0  0  0  0  0  0  0  0
    4.9845   -0.5578    3.5534 C   0  0  0  0  0  0  0  0  0  0  0  0
    5.2655    0.5246    4.0407 O   0  0  0  0  0  0  0  0  0  0  0  0
    1.1080    2.0390   -0.4538 H   0  0  0  0  0  0  0  0  0  0  0  0
    1.0042    1.5850    1.2576 H   0  0  0  0  0  0  0  0  0  0  0  0
    0.7796    0.3453   -0.0304 H   0  0  0  0  0  0  0  0  0  0  0  0
    4.9378    1.2839   -0.5275 H   0  0  0  0  0  0  0  0  0  0  0  0
    8.5387   -0.6177    0.8976 H   0  0  0  0  0  0  0  0  0  0  0  0
    8.9625   -2.5458    4.0225 H   0  0  0  0  0  0  0  0  0  0  0  0
    8.9900   -0.8877    3.4037 H   0  0  0  0  0  0  0  0  0  0  0  0
    9.3131   -2.2840    2.3068 H   0  0  0  0  0  0  0  0  0  0  0  0
    3.4029   -4.5873    2.7720 H   0  0  0  0  0  0  0  0  0  0  0  0
    2.2420   -5.9720    4.3573 H   0  0  0  0  0  0  0  0  0  0  0  0
    1.4373   -5.1224    5.6824 H   0  0  0  0  0  0  0  0  0  0  0  0
    3.0206   -5.9031    5.9483 H   0  0  0  0  0  0  0  0  0  0  0  0
    2.9829   -3.2583    6.8672 H   0  0  0  0  0  0  0  0  0  0  0  0
    3.7969   -1.2060    7.3224 H   0  0  0  0  0  0  0  0  0  0  0  0
  1  2  1  0  0  0  0
  1 25  1  0  0  0  0
  1 26  1  0  0  0  0
  1 27  1  0  0  0  0
  2  3  1  0  0  0  0
  3  4  2  0  0  0  0
  3  5  1  0  0  0  0
  5  6  2  0  0  0  0
  5 13  1  0  0  0  0
  6  7  1  0  0  0  0
  6 28  1  0  0  0  0
  7  8  2  0  0  0  0
  7  9  1  0  0  0  0
  9 10  2  0  0  0  0
  9 29  1  0  0  0  0
 10 11  1  0  0  0  0
 11 12  1  0  0  0  0
 12 30  1  0  0  0  0
 12 31  1  0  0  0  0
 12 32  1  0  0  0  0
 13 10  1  6  0  0  0
 13 14  1  0  0  0  0
 13 23  1  0  0  0  0
 14 15  1  0  0  0  0
 15 16  1  0  0  0  0
 15 22  2  0  0  0  0
 16 17  2  0  0  0  0
 16 33  1  0  0  0  0
 17 18  1  0  0  0  0
 17 19  1  0  0  0  0
 18 34  1  0  0  0  0
 18 35  1  0  0  0  0
 18 36  1  0  0  0  0
 19 20  2  0  0  0  0
 19 37  1  0  0  0  0
 20 21  1  0  0  0  0
 20 22  1  0  0  0  0
 21 38  1  0  0  0  0
 22 23  1  0  0  0  0
 23 24  2  0  0  0  0
M  END
$$$$
