CHEBI:16122
 OpenBabel04242413513D

 23 23  0  0  0  0  0  0  0  0999 V2000
    5.1002    2.8634   -1.3476 O   0  0  0  0  0  0  0  0  0  0  0  0
    5.7960    2.0105   -0.8190 C   0  0  0  0  0  0  0  0  0  0  0  0
    7.1315    2.1511   -0.6227 O   0  0  0  0  0  0  0  0  0  0  0  0
    5.2838    0.6745   -0.2855 C   0  0  0  0  0  0  0  0  0  0  0  0
    6.3882   -0.2097   -0.0366 O   0  0  0  0  0  0  0  0  0  0  0  0
    4.4382    0.8643    0.9774 C   0  0  0  0  0  0  0  0  0  0  0  0
    5.1747    1.5049    2.1350 C   0  0  0  0  0  0  0  0  0  0  0  0
    5.1565    2.8962    2.3093 C   0  0  0  0  0  0  0  0  0  0  0  0
    5.8552    3.4843    3.3685 C   0  0  0  0  0  0  0  0  0  0  0  0
    5.7936    5.5664    3.5617 I   0  0  0  0  0  0  0  0  0  0  0  0
    6.5770    2.6919    4.2681 C   0  0  0  0  0  0  0  0  0  0  0  0
    7.2659    3.2552    5.3098 O   0  0  0  0  0  0  0  0  0  0  0  0
    6.5976    1.3047    4.0993 C   0  0  0  0  0  0  0  0  0  0  0  0
    7.6519    0.0466    5.3986 I   0  0  0  0  0  0  0  0  0  0  0  0
    5.9032    0.7153    3.0364 C   0  0  0  0  0  0  0  0  0  0  0  0
    7.4579    1.3720   -0.1142 H   0  0  0  0  0  0  0  0  0  0  0  0
    4.6747    0.2132   -1.0715 H   0  0  0  0  0  0  0  0  0  0  0  0
    6.5975   -0.6439   -0.8864 H   0  0  0  0  0  0  0  0  0  0  0  0
    4.0646   -0.1128    1.3104 H   0  0  0  0  0  0  0  0  0  0  0  0
    3.5509    1.4670    0.7449 H   0  0  0  0  0  0  0  0  0  0  0  0
    4.6004    3.5197    1.6099 H   0  0  0  0  0  0  0  0  0  0  0  0
    7.1430    4.2200    5.2623 H   0  0  0  0  0  0  0  0  0  0  0  0
    5.9275   -0.3650    2.9013 H   0  0  0  0  0  0  0  0  0  0  0  0
  1  2  2  0  0  0  0
  2  3  1  0  0  0  0
  2  4  1  0  0  0  0
  3 16  1  0  0  0  0
  4  5  1  0  0  0  0
  4  6  1  0  0  0  0
  4 17  1  0  0  0  0
  5 18  1  0  0  0  0
  6  7  1  0  0  0  0
  6 19  1  0  0  0  0
  6 20  1  0  0  0  0
  7  8  1  0  0  0  0
  7 15  2  0  0  0  0
  8  9  2  0  0  0  0
  8 21  1  0  0  0  0
  9 10  1  0  0  0  0
  9 11  1  0  0  0  0
 11 12  1  0  0  0  0
 11 13  2  0  0  0  0
 12 22  1  0  0  0  0
 13 14  1  0  0  0  0
 13 15  1  0  0  0  0
 15 23  1  0  0  0  0
M  END
$$$$
