CHEBI:18202
 OpenBabel04242423463D

 26 25  0  0  1  0  0  0  0  0999 V2000
    8.3591   -3.7563   -4.4008 O   0  0  0  0  0  0  0  0  0  0  0  0
    7.8907   -3.0965   -3.2182 C   0  0  0  0  0  0  0  0  0  0  0  0
    6.5555   -3.7312   -2.8146 C   0  0  2  0  0  0  0  0  0  0  0  0
    5.6777   -3.6576   -3.9621 O   0  0  0  0  0  0  0  0  0  0  0  0
    5.8447   -3.0156   -1.6516 C   0  0  1  0  0  0  0  0  0  0  0  0
    5.4562   -1.7064   -2.0903 O   0  0  0  0  0  0  0  0  0  0  0  0
    6.6820   -2.9322   -0.3685 C   0  0  2  0  0  0  0  0  0  0  0  0
    7.1786   -4.2396   -0.0378 O   0  0  0  0  0  0  0  0  0  0  0  0
    5.8990   -2.4007    0.8460 C   0  0  1  0  0  0  0  0  0  0  0  0
    6.7318   -2.6159    2.0121 O   0  0  0  0  0  0  0  0  0  0  0  0
    5.5459   -0.9131    0.7810 C   0  0  0  0  0  0  0  0  0  0  0  0
    5.0023   -0.5267    2.0516 O   0  0  0  0  0  0  0  0  0  0  0  0
    9.2241   -3.3620   -4.6138 H   0  0  0  0  0  0  0  0  0  0  0  0
    7.7670   -2.0378   -3.4672 H   0  0  0  0  0  0  0  0  0  0  0  0
    8.6460   -3.2057   -2.4353 H   0  0  0  0  0  0  0  0  0  0  0  0
    6.6980   -4.7950   -2.5941 H   0  0  0  0  0  0  0  0  0  0  0  0
    6.2327   -3.9851   -4.7016 H   0  0  0  0  0  0  0  0  0  0  0  0
    4.9147   -3.5607   -1.4455 H   0  0  0  0  0  0  0  0  0  0  0  0
    5.0764   -1.8579   -2.9833 H   0  0  0  0  0  0  0  0  0  0  0  0
    7.5584   -2.2913   -0.5208 H   0  0  0  0  0  0  0  0  0  0  0  0
    7.4289   -4.1726    0.9098 H   0  0  0  0  0  0  0  0  0  0  0  0
    4.9980   -2.9997    1.0211 H   0  0  0  0  0  0  0  0  0  0  0  0
    6.3921   -1.9850    2.6822 H   0  0  0  0  0  0  0  0  0  0  0  0
    4.8124   -0.6757    0.0080 H   0  0  0  0  0  0  0  0  0  0  0  0
    6.4443   -0.3081    0.6248 H   0  0  0  0  0  0  0  0  0  0  0  0
    4.0560   -0.7547    2.0362 H   0  0  0  0  0  0  0  0  0  0  0  0
  1  2  1  0  0  0  0
  1 13  1  0  0  0  0
  2 14  1  0  0  0  0
  2 15  1  0  0  0  0
  3  5  1  0  0  0  0
  3  4  1  0  0  0  0
  3  2  1  0  0  0  0
  3 16  1  1  0  0  0
  4 17  1  0  0  0  0
  5  6  1  0  0  0  0
  5 18  1  6  0  0  0
  6 19  1  0  0  0  0
  7  9  1  0  0  0  0
  7  8  1  0  0  0  0
  7  5  1  0  0  0  0
  7 20  1  6  0  0  0
  8 21  1  0  0  0  0
  9 10  1  0  0  0  0
  9 11  1  0  0  0  0
  9 22  1  1  0  0  0
 10 23  1  0  0  0  0
 11 12  1  0  0  0  0
 11 24  1  0  0  0  0
 11 25  1  0  0  0  0
 12 26  1  0  0  0  0
M  END
$$$$
