CHEBI:16808
 OpenBabel04242415173D

 22 21  0  0  1  0  0  0  0  0999 V2000
    7.0682    1.9611    0.4538 O   0  0  0  0  0  0  0  0  0  0  0  0
    6.9449    0.7290    0.1856 C   0  0  0  0  0  0  0  0  0  0  0  0
    5.9585   -0.0206    0.4757 O   0  5  0  0  0  0  0  0  0  0  0  0
    8.0953    0.0244   -0.5199 C   0  0  0  0  0  0  0  0  0  0  0  0
    8.9500    0.7153   -1.0837 O   0  0  0  0  0  0  0  0  0  0  0  0
    8.2567   -1.4824   -0.3770 C   0  0  1  0  0  0  0  0  0  0  0  0
    9.4293   -1.8462   -1.1492 O   0  0  0  0  0  0  0  0  0  0  0  0
    7.0825   -2.3838   -0.8003 C   0  0  2  0  0  0  0  0  0  0  0  0
    6.0661   -2.4697    0.2223 O   0  0  0  0  0  0  0  0  0  0  0  0
    6.3973   -2.0604   -2.1475 C   0  0  2  0  0  0  0  0  0  0  0  0
    5.1851   -2.8454   -2.2138 O   0  0  0  0  0  0  0  0  0  0  0  0
    7.2370   -2.4165   -3.3812 C   0  0  0  0  0  0  0  0  0  0  0  0
    8.3431   -1.5559   -3.5979 O   0  0  0  0  0  0  0  0  0  0  0  0
    8.5038   -1.6724    0.6741 H   0  0  0  0  0  0  0  0  0  0  0  0
   10.0301   -1.0729   -1.0564 H   0  0  0  0  0  0  0  0  0  0  0  0
    7.4639   -3.4106   -0.8748 H   0  0  0  0  0  0  0  0  0  0  0  0
    5.8100   -1.5296    0.4402 H   0  0  0  0  0  0  0  0  0  0  0  0
    6.0948   -1.0092   -2.1816 H   0  0  0  0  0  0  0  0  0  0  0  0
    4.8465   -2.8331   -1.2924 H   0  0  0  0  0  0  0  0  0  0  0  0
    6.6066   -2.3693   -4.2763 H   0  0  0  0  0  0  0  0  0  0  0  0
    7.5993   -3.4494   -3.3226 H   0  0  0  0  0  0  0  0  0  0  0  0
    8.9517   -1.6731   -2.8398 H   0  0  0  0  0  0  0  0  0  0  0  0
  1  2  2  0  0  0  0
  2  3  1  0  0  0  0
  2  4  1  0  0  0  0
  4  5  2  0  0  0  0
  4  6  1  0  0  0  0
  6  7  1  0  0  0  0
  6 14  1  6  0  0  0
  7 15  1  0  0  0  0
  8  9  1  0  0  0  0
  8  6  1  0  0  0  0
  8 16  1  1  0  0  0
  9 17  1  0  0  0  0
 10 12  1  0  0  0  0
 10 11  1  0  0  0  0
 10  8  1  0  0  0  0
 10 18  1  6  0  0  0
 11 19  1  0  0  0  0
 12 13  1  0  0  0  0
 12 20  1  0  0  0  0
 12 21  1  0  0  0  0
 13 22  1  0  0  0  0
M  CHG  1   3  -1
M  END
$$$$
