CHEBI:16669
 OpenBabel04242415023D

 21 20  0  0  1  0  0  0  0  0999 V2000
    7.5161   -3.5153   -2.5062 O   0  0  0  0  0  0  0  0  0  0  0  0
    7.0250   -3.3841   -3.6638 C   0  0  0  0  0  0  0  0  0  0  0  0
    6.4318   -4.2158   -4.3952 O   0  5  0  0  0  0  0  0  0  0  0  0
    7.1557   -1.9866   -4.2340 C   0  0  0  0  0  0  0  0  0  0  0  0
    5.9743   -1.1816   -3.7252 C   0  0  1  0  0  0  0  0  0  0  0  0
    6.0161    0.1187   -4.3566 O   0  0  0  0  0  0  0  0  0  0  0  0
    5.8376   -0.9900   -2.1989 C   0  0  2  0  0  0  0  0  0  0  0  0
    4.6373   -0.2045   -1.9864 O   0  0  0  0  0  0  0  0  0  0  0  0
    6.9924   -0.2112   -1.5552 C   0  0  0  0  0  0  0  0  0  0  0  0
    6.9466    1.0224   -1.4313 O   0  0  0  0  0  0  0  0  0  0  0  0
    8.2266   -0.9800   -1.0874 C   0  0  0  0  0  0  0  0  0  0  0  0
    7.9868   -2.1858   -0.3933 O   0  0  0  0  0  0  0  0  0  0  0  0
    7.1451   -2.0293   -5.3303 H   0  0  0  0  0  0  0  0  0  0  0  0
    8.1122   -1.5271   -3.9700 H   0  0  0  0  0  0  0  0  0  0  0  0
    5.0418   -1.6399   -4.0808 H   0  0  0  0  0  0  0  0  0  0  0  0
    6.0200   -0.0494   -5.3153 H   0  0  0  0  0  0  0  0  0  0  0  0
    5.6778   -1.9306   -1.6680 H   0  0  0  0  0  0  0  0  0  0  0  0
    4.8458    0.6426   -2.4318 H   0  0  0  0  0  0  0  0  0  0  0  0
    8.7709   -0.3248   -0.3985 H   0  0  0  0  0  0  0  0  0  0  0  0
    8.8894   -1.1653   -1.9362 H   0  0  0  0  0  0  0  0  0  0  0  0
    7.8090   -2.8685   -1.1004 H   0  0  0  0  0  0  0  0  0  0  0  0
  1  2  2  0  0  0  0
  2  3  1  0  0  0  0
  2  4  1  0  0  0  0
  4  5  1  0  0  0  0
  4 13  1  0  0  0  0
  4 14  1  0  0  0  0
  5  6  1  0  0  0  0
  5 15  1  1  0  0  0
  6 16  1  0  0  0  0
  7  9  1  0  0  0  0
  7  8  1  0  0  0  0
  7  5  1  0  0  0  0
  7 17  1  1  0  0  0
  8 18  1  0  0  0  0
  9 10  2  0  0  0  0
  9 11  1  0  0  0  0
 11 12  1  0  0  0  0
 11 19  1  0  0  0  0
 11 20  1  0  0  0  0
 12 21  1  0  0  0  0
M  CHG  1   3  -1
M  END
$$$$
