CHEBI:15545
 OpenBabel04242412453D

 56 56  0  0  1  0  0  0  0  0999 V2000
   10.1006   11.2407    6.8107 C   0  0  0  0  0  0  0  0  0  0  0  0
   10.2093   12.2894    5.7138 C   0  0  0  0  0  0  0  0  0  0  0  0
    9.4354   11.9239    4.4439 C   0  0  0  0  0  0  0  0  0  0  0  0
   10.0180   10.7137    3.7072 C   0  0  0  0  0  0  0  0  0  0  0  0
    9.3342   10.4272    2.3599 C   0  0  0  0  0  0  0  0  0  0  0  0
    7.8359   10.1192    2.4691 C   0  0  2  0  0  0  0  0  0  0  0  0
    7.6398    9.0549    3.3917 O   0  0  0  0  0  0  0  0  0  0  0  0
    7.2265    9.7798    1.1292 C   0  0  0  0  0  0  0  0  0  0  0  0
    6.6205    8.6249    0.7925 C   0  0  0  0  0  0  0  0  0  0  0  0
    5.9256    8.3011   -0.5126 C   0  0  1  0  0  0  0  0  0  0  0  0
    4.5124    8.8198   -0.4668 C   0  0  0  0  0  0  0  0  0  0  0  0
    4.2575    9.8155   -1.3187 C   0  0  0  0  0  0  0  0  0  0  0  0
    5.4968   10.0148   -2.0825 C   0  0  0  0  0  0  0  0  0  0  0  0
    5.6280   10.9180   -2.8948 O   0  0  0  0  0  0  0  0  0  0  0  0
    6.5180    8.9396   -1.7904 C   0  0  2  0  0  0  0  0  0  0  0  0
    6.5667    7.9909   -3.0002 C   0  0  0  0  0  0  0  0  0  0  0  0
    7.5880    6.8613   -2.8464 C   0  0  0  0  0  0  0  0  0  0  0  0
    7.5978    5.9605   -4.0850 C   0  0  0  0  0  0  0  0  0  0  0  0
    8.5743    4.7952   -3.9202 C   0  0  0  0  0  0  0  0  0  0  0  0
    8.5703    3.8854   -5.1493 C   0  0  0  0  0  0  0  0  0  0  0  0
    9.5616    2.7361   -4.9910 C   0  0  0  0  0  0  0  0  0  0  0  0
    9.5660    1.8600   -6.2129 C   0  0  0  0  0  0  0  0  0  0  0  0
    8.5910    1.4330   -6.8072 O   0  0  0  0  0  0  0  0  0  0  0  0
   10.8099    1.5382   -6.6151 O   0  0  0  0  0  0  0  0  0  0  0  0
   10.6061   11.5907    7.7165 H   0  0  0  0  0  0  0  0  0  0  0  0
   10.5685   10.2977    6.5139 H   0  0  0  0  0  0  0  0  0  0  0  0
    9.0538   11.0435    7.0631 H   0  0  0  0  0  0  0  0  0  0  0  0
   11.2648   12.4612    5.4741 H   0  0  0  0  0  0  0  0  0  0  0  0
    9.8138   13.2364    6.1007 H   0  0  0  0  0  0  0  0  0  0  0  0
    9.4465   12.7904    3.7715 H   0  0  0  0  0  0  0  0  0  0  0  0
    8.3885   11.7401    4.7101 H   0  0  0  0  0  0  0  0  0  0  0  0
    9.9564    9.8214    4.3397 H   0  0  0  0  0  0  0  0  0  0  0  0
   11.0845   10.8892    3.5182 H   0  0  0  0  0  0  0  0  0  0  0  0
    9.8494    9.5677    1.9105 H   0  0  0  0  0  0  0  0  0  0  0  0
    9.4911   11.2788    1.6858 H   0  0  0  0  0  0  0  0  0  0  0  0
    7.3086   10.9968    2.8593 H   0  0  0  0  0  0  0  0  0  0  0  0
    6.6831    9.0057    3.5547 H   0  0  0  0  0  0  0  0  0  0  0  0
    7.2603   10.5953    0.4086 H   0  0  0  0  0  0  0  0  0  0  0  0
    6.5806    7.8224    1.5289 H   0  0  0  0  0  0  0  0  0  0  0  0
    5.8999    7.2101   -0.6082 H   0  0  0  0  0  0  0  0  0  0  0  0
    3.7813    8.4369    0.2344 H   0  0  0  0  0  0  0  0  0  0  0  0
    3.3541   10.3789   -1.4667 H   0  0  0  0  0  0  0  0  0  0  0  0
    7.4992    9.3951   -1.6221 H   0  0  0  0  0  0  0  0  0  0  0  0
    6.8152    8.5724   -3.8982 H   0  0  0  0  0  0  0  0  0  0  0  0
    5.5719    7.5637   -3.1841 H   0  0  0  0  0  0  0  0  0  0  0  0
    7.3542    6.2539   -1.9657 H   0  0  0  0  0  0  0  0  0  0  0  0
    8.5866    7.2861   -2.6904 H   0  0  0  0  0  0  0  0  0  0  0  0
    7.8742    6.5513   -4.9669 H   0  0  0  0  0  0  0  0  0  0  0  0
    6.5886    5.5686   -4.2624 H   0  0  0  0  0  0  0  0  0  0  0  0
    8.3021    4.2104   -3.0331 H   0  0  0  0  0  0  0  0  0  0  0  0
    9.5854    5.1857   -3.7531 H   0  0  0  0  0  0  0  0  0  0  0  0
    8.8234    4.4673   -6.0445 H   0  0  0  0  0  0  0  0  0  0  0  0
    7.5609    3.4867   -5.3103 H   0  0  0  0  0  0  0  0  0  0  0  0
    9.3127    2.1113   -4.1265 H   0  0  0  0  0  0  0  0  0  0  0  0
   10.5683    3.1402   -4.8337 H   0  0  0  0  0  0  0  0  0  0  0  0
   10.6662    0.9708   -7.4014 H   0  0  0  0  0  0  0  0  0  0  0  0
  1  2  1  0  0  0  0
  1 25  1  0  0  0  0
  1 26  1  0  0  0  0
  1 27  1  0  0  0  0
  2  3  1  0  0  0  0
  2 28  1  0  0  0  0
  2 29  1  0  0  0  0
  3  4  1  0  0  0  0
  3 30  1  0  0  0  0
  3 31  1  0  0  0  0
  4  5  1  0  0  0  0
  4 32  1  0  0  0  0
  4 33  1  0  0  0  0
  5 34  1  0  0  0  0
  5 35  1  0  0  0  0
  6  8  1  0  0  0  0
  6  7  1  0  0  0  0
  6  5  1  0  0  0  0
  6 36  1  1  0  0  0
  7 37  1  0  0  0  0
  8  9  2  0  0  0  0
  8 38  1  0  0  0  0
  9 10  1  0  0  0  0
  9 39  1  0  0  0  0
 10 11  1  0  0  0  0
 10 15  1  0  0  0  0
 10 40  1  6  0  0  0
 11 12  2  0  0  0  0
 11 41  1  0  0  0  0
 12 13  1  0  0  0  0
 12 42  1  0  0  0  0
 13 14  2  0  0  0  0
 13 15  1  0  0  0  0
 15 16  1  0  0  0  0
 15 43  1  1  0  0  0
 16 17  1  0  0  0  0
 16 44  1  0  0  0  0
 16 45  1  0  0  0  0
 17 18  1  0  0  0  0
 17 46  1  0  0  0  0
 17 47  1  0  0  0  0
 18 19  1  0  0  0  0
 18 48  1  0  0  0  0
 18 49  1  0  0  0  0
 19 20  1  0  0  0  0
 19 50  1  0  0  0  0
 19 51  1  0  0  0  0
 20 21  1  0  0  0  0
 20 52  1  0  0  0  0
 20 53  1  0  0  0  0
 21 22  1  0  0  0  0
 21 54  1  0  0  0  0
 21 55  1  0  0  0  0
 22 23  2  0  0  0  0
 22 24  1  0  0  0  0
 24 56  1  0  0  0  0
M  END
$$$$
