CHEBI:16023
 OpenBabel04242413383D

 16 15  0  0  1  0  0  0  0  0999 V2000
    3.7807   -0.1552    2.7163 O   0  0  0  0  0  0  0  0  0  0  0  0
    3.0634    0.6360    2.0922 C   0  0  0  0  0  0  0  0  0  0  0  0
    1.7587    1.1428    2.6922 C   0  0  0  0  0  0  0  0  0  0  0  0
    1.5388    0.6235    3.9973 O   0  0  0  0  0  0  0  0  0  0  0  0
    3.4262    1.1690    0.7088 C   0  0  2  0  0  0  0  0  0  0  0  0
    2.4283    0.7887   -0.2346 O   0  0  0  0  0  0  0  0  0  0  0  0
    4.7840    0.6347    0.2487 C   0  0  0  0  0  0  0  0  0  0  0  0
    4.6881   -0.7743    0.0135 O   0  0  0  0  0  0  0  0  0  0  0  0
    0.9234    0.8411    2.0552 H   0  0  0  0  0  0  0  0  0  0  0  0
    1.7988    2.2328    2.7634 H   0  0  0  0  0  0  0  0  0  0  0  0
    2.2911    0.0288    4.1929 H   0  0  0  0  0  0  0  0  0  0  0  0
    3.4597    2.2618    0.7668 H   0  0  0  0  0  0  0  0  0  0  0  0
    2.6936   -0.0981   -0.5597 H   0  0  0  0  0  0  0  0  0  0  0  0
    5.5817    0.8261    0.9734 H   0  0  0  0  0  0  0  0  0  0  0  0
    5.0599    1.0925   -0.7064 H   0  0  0  0  0  0  0  0  0  0  0  0
    4.6981   -1.1986    0.8965 H   0  0  0  0  0  0  0  0  0  0  0  0
  1  2  2  0  0  0  0
  2  3  1  0  0  0  0
  3  4  1  0  0  0  0
  3  9  1  0  0  0  0
  3 10  1  0  0  0  0
  4 11  1  0  0  0  0
  5  7  1  0  0  0  0
  5  6  1  0  0  0  0
  5  2  1  0  0  0  0
  5 12  1  1  0  0  0
  6 13  1  0  0  0  0
  7  8  1  0  0  0  0
  7 14  1  0  0  0  0
  7 15  1  0  0  0  0
  8 16  1  0  0  0  0
M  END
$$$$
