CHEBI:15638
 OpenBabel04242412583D

 55 58  0  0  1  0  0  0  0  0999 V2000
    6.3548   -6.4183   -4.0894 N   0  0  0  0  0  0  0  0  0  0  0  0
    7.2234   -5.8763   -3.2073 C   0  0  0  0  0  0  0  0  0  0  0  0
    7.5456   -6.5035   -2.1225 N   0  0  0  0  0  0  0  0  0  0  0  0
    8.4383   -5.9281   -1.2537 C   0  0  0  0  0  0  0  0  0  0  0  0
    9.0199   -4.7191   -1.4847 C   0  0  0  0  0  0  0  0  0  0  0  0
    8.6266   -4.0074   -2.7348 C   0  0  0  0  0  0  0  0  0  0  0  0
    9.0837   -2.9068   -3.0319 O   0  0  0  0  0  0  0  0  0  0  0  0
    7.7234   -4.6537   -3.5235 N   0  0  0  0  0  0  0  0  0  0  0  0
    9.8856   -4.1689   -0.5431 N   0  3  0  0  0  0  0  0  0  0  0  0
   10.3112   -2.9322   -0.4512 C   0  0  0  0  0  0  0  0  0  0  0  0
   10.9512   -2.6911    0.6821 N   0  0  0  0  0  0  0  0  0  0  0  0
   11.4573   -1.4663    1.0195 C   0  0  0  0  0  0  0  0  0  0  0  0
   11.6592   -1.0974    2.3574 C   0  0  0  0  0  0  0  0  0  0  0  0
   12.1193    0.1870    2.7066 C   0  0  0  0  0  0  0  0  0  0  0  0
   12.4125    1.1283    1.7150 C   0  0  0  0  0  0  0  0  0  0  0  0
   12.8957    2.5176    1.9797 C   0  0  0  0  0  0  0  0  0  0  0  0
   13.2430    3.2267    1.0404 O   0  0  0  0  0  0  0  0  0  0  0  0
   12.9284    2.9592    3.2809 N   0  0  0  0  0  0  0  0  0  0  0  0
   13.5382    4.2440    3.6149 C   0  0  1  0  0  0  0  0  0  0  0  0
   13.0752    4.7546    4.9860 C   0  0  0  0  0  0  0  0  0  0  0  0
   11.5865    5.1013    5.0371 C   0  0  0  0  0  0  0  0  0  0  0  0
   10.6926    3.8917    5.1417 C   0  0  0  0  0  0  0  0  0  0  0  0
   11.0308    2.7273    5.2844 O   0  0  0  0  0  0  0  0  0  0  0  0
    9.3910    4.2328    5.0788 O   0  0  0  0  0  0  0  0  0  0  0  0
   15.0619    4.0745    3.6292 C   0  0  0  0  0  0  0  0  0  0  0  0
   15.6819    3.0294    3.7606 O   0  0  0  0  0  0  0  0  0  0  0  0
   15.7160    5.2509    3.5336 O   0  0  0  0  0  0  0  0  0  0  0  0
   12.2582    0.7517    0.3770 C   0  0  0  0  0  0  0  0  0  0  0  0
   11.7883   -0.5218    0.0377 C   0  0  0  0  0  0  0  0  0  0  0  0
   10.9104   -3.8898    1.5549 C   0  0  0  0  0  0  0  0  0  0  0  0
   10.4166   -4.9799    0.5844 C   0  0  1  0  0  0  0  0  0  0  0  0
    9.3160   -5.9210    1.0916 C   0  0  0  0  0  0  0  0  0  0  0  0
    8.7250   -6.6097   -0.0606 N   0  0  0  0  0  0  0  0  0  0  0  0
    5.8655   -7.2357   -3.7357 H   0  0  0  0  0  0  0  0  0  0  0  0
    5.7636   -5.8059   -4.6368 H   0  0  0  0  0  0  0  0  0  0  0  0
    7.4755   -4.2127   -4.3962 H   0  0  0  0  0  0  0  0  0  0  0  0
   10.0931   -2.1654   -1.1805 H   0  0  0  0  0  0  0  0  0  0  0  0
   11.4312   -1.7828    3.1690 H   0  0  0  0  0  0  0  0  0  0  0  0
   12.2356    0.4170    3.7621 H   0  0  0  0  0  0  0  0  0  0  0  0
   12.7039    2.3450    4.0539 H   0  0  0  0  0  0  0  0  0  0  0  0
   13.2862    4.9613    2.8245 H   0  0  0  0  0  0  0  0  0  0  0  0
   13.6398    5.6634    5.2313 H   0  0  0  0  0  0  0  0  0  0  0  0
   13.3216    4.0212    5.7649 H   0  0  0  0  0  0  0  0  0  0  0  0
   11.3026    5.6817    4.1527 H   0  0  0  0  0  0  0  0  0  0  0  0
   11.4011    5.7119    5.9286 H   0  0  0  0  0  0  0  0  0  0  0  0
    8.8923    3.3982    5.1908 H   0  0  0  0  0  0  0  0  0  0  0  0
   16.6648    5.0032    3.5330 H   0  0  0  0  0  0  0  0  0  0  0  0
   12.5066    1.4535   -0.4200 H   0  0  0  0  0  0  0  0  0  0  0  0
   11.7212   -0.7515   -1.0223 H   0  0  0  0  0  0  0  0  0  0  0  0
   10.2061   -3.7213    2.3757 H   0  0  0  0  0  0  0  0  0  0  0  0
   11.9076   -4.1198    1.9429 H   0  0  0  0  0  0  0  0  0  0  0  0
   11.2676   -5.5562    0.1979 H   0  0  0  0  0  0  0  0  0  0  0  0
    8.5296   -5.3588    1.6077 H   0  0  0  0  0  0  0  0  0  0  0  0
    9.7282   -6.6530    1.7930 H   0  0  0  0  0  0  0  0  0  0  0  0
    8.0160   -7.3193    0.1261 H   0  0  0  0  0  0  0  0  0  0  0  0
  1  2  1  0  0  0  0
  1 34  1  0  0  0  0
  1 35  1  0  0  0  0
  2  3  2  0  0  0  0
  2  8  1  0  0  0  0
  3  4  1  0  0  0  0
  4  5  2  0  0  0  0
  4 33  1  0  0  0  0
  5  6  1  0  0  0  0
  5  9  1  0  0  0  0
  6  7  2  0  0  0  0
  6  8  1  0  0  0  0
  8 36  1  0  0  0  0
  9 10  2  0  0  0  0
  9 31  1  0  0  0  0
 10 11  1  0  0  0  0
 10 37  1  0  0  0  0
 11 12  1  0  0  0  0
 11 30  1  0  0  0  0
 12 13  1  0  0  0  0
 12 29  2  0  0  0  0
 13 14  2  0  0  0  0
 13 38  1  0  0  0  0
 14 15  1  0  0  0  0
 14 39  1  0  0  0  0
 15 16  1  0  0  0  0
 15 28  2  0  0  0  0
 16 17  2  0  0  0  0
 16 18  1  0  0  0  0
 18 19  1  0  0  0  0
 18 40  1  0  0  0  0
 19 20  1  0  0  0  0
 19 25  1  0  0  0  0
 19 41  1  6  0  0  0
 20 21  1  0  0  0  0
 20 42  1  0  0  0  0
 20 43  1  0  0  0  0
 21 22  1  0  0  0  0
 21 44  1  0  0  0  0
 21 45  1  0  0  0  0
 22 23  2  0  0  0  0
 22 24  1  0  0  0  0
 24 46  1  0  0  0  0
 25 26  2  0  0  0  0
 25 27  1  0  0  0  0
 27 47  1  0  0  0  0
 28 29  1  0  0  0  0
 28 48  1  0  0  0  0
 29 49  1  0  0  0  0
 30 31  1  0  0  0  0
 30 50  1  0  0  0  0
 30 51  1  0  0  0  0
 31 32  1  0  0  0  0
 31 52  1  6  0  0  0
 32 33  1  0  0  0  0
 32 53  1  0  0  0  0
 32 54  1  0  0  0  0
 33 55  1  0  0  0  0
M  CHG  1   9   1
M  END
$$$$
