CHEBI:16990
 OpenBabel04242415393D

 79 82  0  0  0  0  0  0  0  0999 V2000
    1.7186   10.5417    1.0048 C   0  0  0  0  0  0  0  0  0  0  0  0
    2.5482    9.5851    0.5718 C   0  0  0  0  0  0  0  0  0  0  0  0
    3.3122    9.6757   -0.6424 C   0  0  0  0  0  0  0  0  0  0  0  0
    3.5156    8.7235   -1.5788 C   0  0  0  0  0  0  0  0  0  0  0  0
    2.9536    7.3416   -1.6036 C   0  0  0  0  0  0  0  0  0  0  0  0
    4.3102    9.2569   -2.6708 C   0  0  0  0  0  0  0  0  0  0  0  0
    4.6917    8.6509   -3.8018 C   0  0  0  0  0  0  0  0  0  0  0  0
    5.3664    9.3496   -4.8311 C   0  0  0  0  0  0  0  0  0  0  0  0
    6.7222    9.2090   -4.9400 N   0  0  0  0  0  0  0  0  0  0  0  0
    7.1795    9.9035   -6.0361 C   0  0  0  0  0  0  0  0  0  0  0  0
    8.6215    9.8114   -6.4390 C   0  0  0  0  0  0  0  0  0  0  0  0
    9.5449   10.4596   -5.4535 C   0  0  0  0  0  0  0  0  0  0  0  0
    9.4738   11.8127   -5.2247 N   0  0  0  0  0  0  0  0  0  0  0  0
   10.4046   12.1924   -4.2941 C   0  0  0  0  0  0  0  0  0  0  0  0
   10.5060   13.5456   -3.8757 C   0  0  0  0  0  0  0  0  0  0  0  0
    9.4841   14.3835   -3.6552 C   0  0  0  0  0  0  0  0  0  0  0  0
    8.1551   14.1168   -3.7987 N   0  0  0  0  0  0  0  0  0  0  0  0
    7.3858   15.2244   -3.5547 C   0  0  0  0  0  0  0  0  0  0  0  0
    6.1766   15.3169   -3.6557 O   0  0  0  0  0  0  0  0  0  0  0  0
    8.3254   16.3010   -3.1608 C   0  0  0  0  0  0  0  0  0  0  0  0
    7.8281   17.6355   -2.7507 C   0  0  0  0  0  0  0  0  0  0  0  0
    9.5669   15.7738   -3.2130 C   0  0  0  0  0  0  0  0  0  0  0  0
   10.7457   16.5342   -2.8498 C   0  0  0  0  0  0  0  0  0  0  0  0
   11.6150   16.1586   -1.9029 C   0  0  0  0  0  0  0  0  0  0  0  0
   11.1884   11.0825   -4.0182 C   0  0  0  0  0  0  0  0  0  0  0  0
   12.4052   11.0716   -3.1545 C   0  0  0  0  0  0  0  0  0  0  0  0
   10.6044    9.9620   -4.7051 C   0  0  0  0  0  0  0  0  0  0  0  0
   11.0990    8.5431   -4.6681 C   0  0  0  0  0  0  0  0  0  0  0  0
   10.9902    7.9081   -3.2867 C   0  0  0  0  0  0  0  0  0  0  0  0
   11.4481    6.4817   -3.3483 C   0  0  0  0  0  0  0  0  0  0  0  0
   10.9873    5.6067   -4.0621 O   0  0  0  0  0  0  0  0  0  0  0  0
   12.4654    6.2188   -2.5075 O   0  0  0  0  0  0  0  0  0  0  0  0
    6.0907   10.5432   -6.6195 C   0  0  0  0  0  0  0  0  0  0  0  0
    6.1039   11.3909   -7.8619 C   0  0  0  0  0  0  0  0  0  0  0  0
    5.6582   12.8307   -7.6152 C   0  0  0  0  0  0  0  0  0  0  0  0
    5.8034   13.6496   -8.8729 C   0  0  0  0  0  0  0  0  0  0  0  0
    6.6217   13.4342   -9.7535 O   0  0  0  0  0  0  0  0  0  0  0  0
    4.9515   14.6981   -8.9254 O   0  0  0  0  0  0  0  0  0  0  0  0
    4.9304   10.1692   -5.8568 C   0  0  0  0  0  0  0  0  0  0  0  0
    3.5139   10.5526   -6.1233 C   0  0  0  0  0  0  0  0  0  0  0  0
    4.5894   10.5458   -2.3314 N   0  0  0  0  0  0  0  0  0  0  0  0
    4.0458   10.8902   -1.1180 C   0  0  0  0  0  0  0  0  0  0  0  0
    4.1511   11.9597   -0.5476 O   0  0  0  0  0  0  0  0  0  0  0  0
    1.1509   10.4144    1.9204 H   0  0  0  0  0  0  0  0  0  0  0  0
    1.5745   11.4681    0.4546 H   0  0  0  0  0  0  0  0  0  0  0  0
    2.6369    8.6641    1.1419 H   0  0  0  0  0  0  0  0  0  0  0  0
    2.3556    7.1199   -0.7144 H   0  0  0  0  0  0  0  0  0  0  0  0
    3.7543    6.5972   -1.6549 H   0  0  0  0  0  0  0  0  0  0  0  0
    2.2996    7.2111   -2.4728 H   0  0  0  0  0  0  0  0  0  0  0  0
    4.4227    7.6164   -3.9954 H   0  0  0  0  0  0  0  0  0  0  0  0
    7.3068    8.6571   -4.3250 H   0  0  0  0  0  0  0  0  0  0  0  0
    8.7785   10.2743   -7.4195 H   0  0  0  0  0  0  0  0  0  0  0  0
    8.8764    8.7536   -6.5682 H   0  0  0  0  0  0  0  0  0  0  0  0
    8.8310   12.4368   -5.6938 H   0  0  0  0  0  0  0  0  0  0  0  0
   11.5155   13.9031   -3.6867 H   0  0  0  0  0  0  0  0  0  0  0  0
    7.7475   13.2192   -4.0053 H   0  0  0  0  0  0  0  0  0  0  0  0
    7.2840   18.1113   -3.5723 H   0  0  0  0  0  0  0  0  0  0  0  0
    8.6397   18.3075   -2.4557 H   0  0  0  0  0  0  0  0  0  0  0  0
    7.1505   17.5429   -1.8956 H   0  0  0  0  0  0  0  0  0  0  0  0
   10.8977   17.4775   -3.3706 H   0  0  0  0  0  0  0  0  0  0  0  0
   11.4882   15.2411   -1.3354 H   0  0  0  0  0  0  0  0  0  0  0  0
   12.4736   16.7779   -1.6621 H   0  0  0  0  0  0  0  0  0  0  0  0
   13.0370   10.2025   -3.3598 H   0  0  0  0  0  0  0  0  0  0  0  0
   12.1211   11.0542   -2.0980 H   0  0  0  0  0  0  0  0  0  0  0  0
   13.0182   11.9611   -3.3343 H   0  0  0  0  0  0  0  0  0  0  0  0
   12.1426    8.5228   -5.0079 H   0  0  0  0  0  0  0  0  0  0  0  0
   10.5444    7.9331   -5.3900 H   0  0  0  0  0  0  0  0  0  0  0  0
    9.9613    7.9225   -2.9106 H   0  0  0  0  0  0  0  0  0  0  0  0
   11.6013    8.4487   -2.5559 H   0  0  0  0  0  0  0  0  0  0  0  0
   12.6599    5.2682   -2.6487 H   0  0  0  0  0  0  0  0  0  0  0  0
    5.4530   10.9257   -8.6138 H   0  0  0  0  0  0  0  0  0  0  0  0
    7.1080   11.3895   -8.2996 H   0  0  0  0  0  0  0  0  0  0  0  0
    6.2535   13.3028   -6.8264 H   0  0  0  0  0  0  0  0  0  0  0  0
    4.6076   12.8424   -7.3078 H   0  0  0  0  0  0  0  0  0  0  0  0
    4.3702   14.7855   -8.1456 H   0  0  0  0  0  0  0  0  0  0  0  0
    3.3186   10.6118   -7.1985 H   0  0  0  0  0  0  0  0  0  0  0  0
    3.2963   11.5266   -5.6740 H   0  0  0  0  0  0  0  0  0  0  0  0
    2.8148    9.8215   -5.7046 H   0  0  0  0  0  0  0  0  0  0  0  0
    5.1298   11.1881   -2.8920 H   0  0  0  0  0  0  0  0  0  0  0  0
  1  2  2  0  0  0  0
  1 44  1  0  0  0  0
  1 45  1  0  0  0  0
  2  3  1  0  0  0  0
  2 46  1  0  0  0  0
  3  4  2  0  0  0  0
  3 42  1  0  0  0  0
  4  5  1  0  0  0  0
  4  6  1  0  0  0  0
  5 47  1  0  0  0  0
  5 48  1  0  0  0  0
  5 49  1  0  0  0  0
  6  7  2  0  0  0  0
  6 41  1  0  0  0  0
  7  8  1  0  0  0  0
  7 50  1  0  0  0  0
  8  9  1  0  0  0  0
  8 39  2  0  0  0  0
  9 10  1  0  0  0  0
  9 51  1  0  0  0  0
 10 11  1  0  0  0  0
 10 33  2  0  0  0  0
 11 12  1  0  0  0  0
 11 52  1  0  0  0  0
 11 53  1  0  0  0  0
 12 13  1  0  0  0  0
 12 27  2  0  0  0  0
 13 14  1  0  0  0  0
 13 54  1  0  0  0  0
 14 15  1  0  0  0  0
 14 25  2  0  0  0  0
 15 16  2  0  0  0  0
 15 55  1  0  0  0  0
 16 17  1  0  0  0  0
 16 22  1  0  0  0  0
 17 18  1  0  0  0  0
 17 56  1  0  0  0  0
 18 19  2  0  0  0  0
 18 20  1  0  0  0  0
 20 21  1  0  0  0  0
 20 22  2  0  0  0  0
 21 57  1  0  0  0  0
 21 58  1  0  0  0  0
 21 59  1  0  0  0  0
 22 23  1  0  0  0  0
 23 24  2  0  0  0  0
 23 60  1  0  0  0  0
 24 61  1  0  0  0  0
 24 62  1  0  0  0  0
 25 26  1  0  0  0  0
 25 27  1  0  0  0  0
 26 63  1  0  0  0  0
 26 64  1  0  0  0  0
 26 65  1  0  0  0  0
 27 28  1  0  0  0  0
 28 29  1  0  0  0  0
 28 66  1  0  0  0  0
 28 67  1  0  0  0  0
 29 30  1  0  0  0  0
 29 68  1  0  0  0  0
 29 69  1  0  0  0  0
 30 31  2  0  0  0  0
 30 32  1  0  0  0  0
 32 70  1  0  0  0  0
 33 34  1  0  0  0  0
 33 39  1  0  0  0  0
 34 35  1  0  0  0  0
 34 71  1  0  0  0  0
 34 72  1  0  0  0  0
 35 36  1  0  0  0  0
 35 73  1  0  0  0  0
 35 74  1  0  0  0  0
 36 37  2  0  0  0  0
 36 38  1  0  0  0  0
 38 75  1  0  0  0  0
 39 40  1  0  0  0  0
 40 76  1  0  0  0  0
 40 77  1  0  0  0  0
 40 78  1  0  0  0  0
 41 42  1  0  0  0  0
 41 79  1  0  0  0  0
 42 43  2  0  0  0  0
M  END
$$$$
