CHEBI:17612
 OpenBabel04242416553D

 19 19  0  0  0  0  0  0  0  0999 V2000
    2.5273   -0.4656   -3.0417 O   0  0  0  0  0  0  0  0  0  0  0  0
    2.7562   -0.9368   -1.8905 C   0  0  0  0  0  0  0  0  0  0  0  0
    2.5184   -2.0976   -1.4414 O   0  5  0  0  0  0  0  0  0  0  0  0
    3.3461    0.0484   -0.8786 C   0  0  0  0  0  0  0  0  0  0  0  0
    4.8528   -0.0200   -0.7867 C   0  0  0  0  0  0  0  0  0  0  0  0
    5.4900   -1.2224   -0.4326 C   0  0  0  0  0  0  0  0  0  0  0  0
    6.8806   -1.2951   -0.3208 C   0  0  0  0  0  0  0  0  0  0  0  0
    7.6361   -0.1533   -0.5529 C   0  0  0  0  0  0  0  0  0  0  0  0
    9.0029   -0.1647   -0.4603 O   0  0  0  0  0  0  0  0  0  0  0  0
    7.0152    1.0469   -0.8914 C   0  0  0  0  0  0  0  0  0  0  0  0
    7.7756    2.1629   -1.1085 O   0  0  0  0  0  0  0  0  0  0  0  0
    5.6340    1.1238   -1.0116 C   0  0  0  0  0  0  0  0  0  0  0  0
    2.9228   -0.1486    0.1145 H   0  0  0  0  0  0  0  0  0  0  0  0
    3.0257    1.0624   -1.1495 H   0  0  0  0  0  0  0  0  0  0  0  0
    4.8873   -2.1143   -0.2586 H   0  0  0  0  0  0  0  0  0  0  0  0
    7.3366   -2.2426   -0.0585 H   0  0  0  0  0  0  0  0  0  0  0  0
    9.2642   -1.0842   -0.2829 H   0  0  0  0  0  0  0  0  0  0  0  0
    8.6911    1.8433   -0.9936 H   0  0  0  0  0  0  0  0  0  0  0  0
    5.1669    2.0643   -1.2871 H   0  0  0  0  0  0  0  0  0  0  0  0
  1  2  2  0  0  0  0
  2  3  1  0  0  0  0
  2  4  1  0  0  0  0
  4  5  1  0  0  0  0
  4 13  1  0  0  0  0
  4 14  1  0  0  0  0
  5  6  1  0  0  0  0
  5 12  2  0  0  0  0
  6  7  2  0  0  0  0
  6 15  1  0  0  0  0
  7  8  1  0  0  0  0
  7 16  1  0  0  0  0
  8  9  1  0  0  0  0
  8 10  2  0  0  0  0
  9 17  1  0  0  0  0
 10 11  1  0  0  0  0
 10 12  1  0  0  0  0
 11 18  1  0  0  0  0
 12 19  1  0  0  0  0
M  CHG  1   3  -1
M  END
$$$$
