CHEBI:15893
 OpenBabel04242413263D

 14 14  0  0  0  0  0  0  0  0999 V2000
    2.8908   -0.2297   -1.0224 O   0  0  0  0  0  0  0  0  0  0  0  0
    2.2108    0.1721   -0.0325 C   0  0  0  0  0  0  0  0  0  0  0  0
    0.9523    0.1634    0.1243 O   0  5  0  0  0  0  0  0  0  0  0  0
    3.0494    0.6952    1.1833 C   0  0  0  0  0  0  0  0  0  0  0  0
    2.4312    0.3155    2.5240 C   0  0  0  0  0  0  0  0  0  0  0  0
    1.5152    1.4784    2.8253 C   0  0  0  0  0  0  0  0  0  0  0  0
    2.2145    2.5507    2.0635 C   0  0  0  0  0  0  0  0  0  0  0  0
    3.1120    2.2016    1.1984 N   0  0  0  0  0  0  0  0  0  0  0  0
    4.0683    0.2966    1.1154 H   0  0  0  0  0  0  0  0  0  0  0  0
    3.2168    0.2596    3.2883 H   0  0  0  0  0  0  0  0  0  0  0  0
    1.9042   -0.6436    2.5181 H   0  0  0  0  0  0  0  0  0  0  0  0
    1.4749    1.7182    3.8901 H   0  0  0  0  0  0  0  0  0  0  0  0
    0.5005    1.3569    2.4390 H   0  0  0  0  0  0  0  0  0  0  0  0
    1.9601    3.6040    2.2468 H   0  0  0  0  0  0  0  0  0  0  0  0
  1  2  2  0  0  0  0
  2  3  1  0  0  0  0
  2  4  1  0  0  0  0
  4  5  1  0  0  0  0
  4  8  1  0  0  0  0
  4  9  1  0  0  0  0
  5  6  1  0  0  0  0
  5 10  1  0  0  0  0
  5 11  1  0  0  0  0
  6  7  1  0  0  0  0
  6 12  1  0  0  0  0
  6 13  1  0  0  0  0
  7  8  2  0  0  0  0
  7 14  1  0  0  0  0
M  CHG  1   3  -1
M  END
$$$$
