CHEBI:17007
 OpenBabel04242415403D

 28 28  0  0  0  0  0  0  0  0999 V2000
    5.1288   -0.9265   -0.7265 C   0  0  0  0  0  0  0  0  0  0  0  0
    4.2301   -1.2022    0.3400 O   0  0  0  0  0  0  0  0  0  0  0  0
    4.2204   -0.3528    1.4138 C   0  0  0  0  0  0  0  0  0  0  0  0
    4.9373    0.8527    1.4355 C   0  0  0  0  0  0  0  0  0  0  0  0
    4.9053    1.6953    2.5511 C   0  0  0  0  0  0  0  0  0  0  0  0
    4.1502    1.3598    3.6770 C   0  0  0  0  0  0  0  0  0  0  0  0
    4.0948    2.2645    4.8818 C   0  0  0  0  0  0  0  0  0  0  0  0
    5.4282    2.5881    5.2909 O   0  0  0  0  0  0  0  0  0  0  0  0
    3.3273    3.5684    4.6090 C   0  0  0  0  0  0  0  0  0  0  0  0
    3.3254    4.3756    5.7931 O   0  0  0  0  0  0  0  0  0  0  0  0
    3.4296    0.1593    3.6535 C   0  0  0  0  0  0  0  0  0  0  0  0
    3.4518   -0.6994    2.5395 C   0  0  0  0  0  0  0  0  0  0  0  0
    2.6761   -1.8125    2.7417 O   0  0  0  0  0  0  0  0  0  0  0  0
    2.5543   -2.7665    1.6986 C   0  0  0  0  0  0  0  0  0  0  0  0
    5.0539   -1.7476   -1.4460 H   0  0  0  0  0  0  0  0  0  0  0  0
    6.1651   -0.8880   -0.3746 H   0  0  0  0  0  0  0  0  0  0  0  0
    4.8496   -0.0046   -1.2467 H   0  0  0  0  0  0  0  0  0  0  0  0
    5.5421    1.1739    0.5936 H   0  0  0  0  0  0  0  0  0  0  0  0
    5.4888    2.6142    2.5408 H   0  0  0  0  0  0  0  0  0  0  0  0
    3.6367    1.7467    5.7328 H   0  0  0  0  0  0  0  0  0  0  0  0
    5.3414    3.3863    5.8470 H   0  0  0  0  0  0  0  0  0  0  0  0
    2.2928    3.3826    4.3023 H   0  0  0  0  0  0  0  0  0  0  0  0
    3.8200    4.1593    3.8296 H   0  0  0  0  0  0  0  0  0  0  0  0
    2.6852    3.9804    6.4112 H   0  0  0  0  0  0  0  0  0  0  0  0
    2.8370   -0.1344    4.5187 H   0  0  0  0  0  0  0  0  0  0  0  0
    2.0957   -2.3261    0.8077 H   0  0  0  0  0  0  0  0  0  0  0  0
    1.8803   -3.5542    2.0504 H   0  0  0  0  0  0  0  0  0  0  0  0
    3.5152   -3.2417    1.4785 H   0  0  0  0  0  0  0  0  0  0  0  0
  1  2  1  0  0  0  0
  1 15  1  0  0  0  0
  1 16  1  0  0  0  0
  1 17  1  0  0  0  0
  2  3  1  0  0  0  0
  3  4  1  0  0  0  0
  3 12  2  0  0  0  0
  4  5  2  0  0  0  0
  4 18  1  0  0  0  0
  5  6  1  0  0  0  0
  5 19  1  0  0  0  0
  6  7  1  0  0  0  0
  6 11  2  0  0  0  0
  7  8  1  0  0  0  0
  7  9  1  0  0  0  0
  7 20  1  0  0  0  0
  8 21  1  0  0  0  0
  9 10  1  0  0  0  0
  9 22  1  0  0  0  0
  9 23  1  0  0  0  0
 10 24  1  0  0  0  0
 11 12  1  0  0  0  0
 11 25  1  0  0  0  0
 12 13  1  0  0  0  0
 13 14  1  0  0  0  0
 14 26  1  0  0  0  0
 14 27  1  0  0  0  0
 14 28  1  0  0  0  0
M  END
$$$$
