CHEBI:18023
 OpenBabel04242423263D

108112  0  0  1  0  0  0  0  0999 V2000
    4.6406    0.9368    2.3051 C   0  0  0  0  0  0  0  0  0  0  0  0
    3.6349    0.5791    3.4160 C   0  0  1  0  0  0  0  0  0  0  0  0
    4.1200    1.1406    4.7878 C   0  0  0  0  0  0  0  0  0  0  0  0
    5.3944    0.5293    5.3402 C   0  0  0  0  0  0  0  0  0  0  0  0
    6.1647   -0.1926    4.7332 O   0  0  0  0  0  0  0  0  0  0  0  0
    5.6356    0.9159    6.6155 O   0  0  0  0  0  0  0  0  0  0  0  0
    3.2560   -0.9047    3.5375 C   0  0  0  0  0  0  0  0  0  0  0  0
    4.0820   -1.9287    3.2328 C   0  0  0  0  0  0  0  0  0  0  0  0
    3.7635   -3.3097    3.3604 C   0  0  0  0  0  0  0  0  0  0  0  0
    2.4743   -3.6560    3.6372 N   0  0  0  0  0  0  0  0  0  0  0  0
    2.3266   -5.0136    3.7362 C   0  0  0  0  0  0  0  0  0  0  0  0
    1.0467   -5.4490    4.1402 C   0  0  0  0  0  0  0  0  0  0  0  0
   -0.0946   -5.1057    3.5257 C   0  0  0  0  0  0  0  0  0  0  0  0
   -1.2089   -4.9600    4.3123 N   0  0  0  0  0  0  0  0  0  0  0  0
   -1.9218   -4.0768    3.6820 C   0  0  0  0  0  0  0  0  0  0  0  0
   -2.8423   -3.2058    4.4188 C   0  0  0  0  0  0  0  0  0  0  0  0
   -2.3010   -2.0308    4.7948 C   0  0  0  0  0  0  0  0  0  0  0  0
   -1.1983   -1.3904    4.2663 N   0  0  0  0  0  0  0  0  0  0  0  0
   -0.9480   -0.1502    4.7918 C   0  0  0  0  0  0  0  0  0  0  0  0
    0.1717    0.5795    4.6503 C   0  0  0  0  0  0  0  0  0  0  0  0
    1.4070    0.1437    3.9360 C   0  0  0  0  0  0  0  0  0  0  0  0
    1.9559   -1.0292    4.0247 N   0  0  0  0  0  0  0  0  0  0  0  0
    2.2088    1.1446    3.1167 C   0  0  1  0  0  0  0  0  0  0  0  0
    1.8133    1.0665    1.6209 C   0  0  0  0  0  0  0  0  0  0  0  0
    0.3629    1.4302    1.3364 C   0  0  0  0  0  0  0  0  0  0  0  0
   -0.0001    1.2354   -0.1090 C   0  0  0  0  0  0  0  0  0  0  0  0
   -0.8894    0.5014   -0.5108 O   0  0  0  0  0  0  0  0  0  0  0  0
    0.7249    1.9926   -0.9476 O   0  0  0  0  0  0  0  0  0  0  0  0
   -2.1875    0.2315    5.6452 C   0  0  1  0  0  0  0  0  0  0  0  0
   -1.8429    1.0609    6.8959 C   0  0  0  0  0  0  0  0  0  0  0  0
   -3.2632    0.9624    4.8008 C   0  0  0  0  0  0  0  0  0  0  0  0
   -2.8320    2.3204    4.3125 C   0  0  0  0  0  0  0  0  0  0  0  0
   -2.9972    3.3577    4.9338 O   0  0  0  0  0  0  0  0  0  0  0  0
   -2.2031    2.2829    3.1187 O   0  0  0  0  0  0  0  0  0  0  0  0
   -2.7718   -1.2088    5.9971 C   0  0  2  0  0  0  0  0  0  0  0  0
   -2.1980   -1.7996    7.3173 C   0  0  0  0  0  0  0  0  0  0  0  0
   -2.6934   -3.2033    7.6712 C   0  0  0  0  0  0  0  0  0  0  0  0
   -2.1726   -3.6509    9.0087 C   0  0  0  0  0  0  0  0  0  0  0  0
   -2.8468   -3.9148    9.9895 O   0  0  0  0  0  0  0  0  0  0  0  0
   -0.8334   -3.7813    9.0341 O   0  0  0  0  0  0  0  0  0  0  0  0
   -1.5308   -3.8187    2.2913 C   0  0  0  0  0  0  0  0  0  0  0  0
   -2.3330   -3.0535    1.3067 C   0  0  0  0  0  0  0  0  0  0  0  0
   -3.7114   -3.6771    1.1617 C   0  0  0  0  0  0  0  0  0  0  0  0
   -3.9229   -4.8614    0.9407 O   0  0  0  0  0  0  0  0  0  0  0  0
   -4.7255   -2.7895    1.2956 O   0  0  0  0  0  0  0  0  0  0  0  0
   -0.3643   -4.4857    2.2330 C   0  0  0  0  0  0  0  0  0  0  0  0
    0.5057   -4.6334    1.0128 C   0  0  0  0  0  0  0  0  0  0  0  0
    0.6555   -6.0697    0.5062 C   0  0  0  0  0  0  0  0  0  0  0  0
   -0.6451   -6.7230    0.1234 C   0  0  0  0  0  0  0  0  0  0  0  0
   -0.8751   -7.9200    0.1800 O   0  0  0  0  0  0  0  0  0  0  0  0
   -1.5625   -5.8621   -0.3512 O   0  0  0  0  0  0  0  0  0  0  0  0
    3.5821   -5.5822    3.6162 C   0  0  0  0  0  0  0  0  0  0  0  0
    3.9849   -7.0151    3.8685 C   0  0  0  0  0  0  0  0  0  0  0  0
    2.9147   -8.0704    3.6117 C   0  0  0  0  0  0  0  0  0  0  0  0
    3.4021   -9.4137    4.0898 C   0  0  0  0  0  0  0  0  0  0  0  0
    4.4473   -9.9310    3.7271 O   0  0  0  0  0  0  0  0  0  0  0  0
    2.5799  -10.0086    4.9837 O   0  0  0  0  0  0  0  0  0  0  0  0
    4.4932   -4.4927    3.3111 C   0  0  0  0  0  0  0  0  0  0  0  0
    5.9745   -4.6177    3.0853 C   0  0  0  0  0  0  0  0  0  0  0  0
    6.3300   -4.9150    1.6431 C   0  0  0  0  0  0  0  0  0  0  0  0
    7.1285   -5.7777    1.3043 O   0  0  0  0  0  0  0  0  0  0  0  0
    5.7523   -4.0891    0.7364 O   0  0  0  0  0  0  0  0  0  0  0  0
    5.6609    0.6214    2.5374 H   0  0  0  0  0  0  0  0  0  0  0  0
    4.6698    2.0214    2.1489 H   0  0  0  0  0  0  0  0  0  0  0  0
    4.3888    0.4635    1.3500 H   0  0  0  0  0  0  0  0  0  0  0  0
    3.3444    0.9914    5.5502 H   0  0  0  0  0  0  0  0  0  0  0  0
    4.2892    2.2208    4.6969 H   0  0  0  0  0  0  0  0  0  0  0  0
    4.9581    1.4995    7.0046 H   0  0  0  0  0  0  0  0  0  0  0  0
    5.0944   -1.6952    2.9106 H   0  0  0  0  0  0  0  0  0  0  0  0
    1.7487   -2.9709    3.8148 H   0  0  0  0  0  0  0  0  0  0  0  0
    0.9771   -5.8454    5.1519 H   0  0  0  0  0  0  0  0  0  0  0  0
   -3.6717   -3.6714    4.9355 H   0  0  0  0  0  0  0  0  0  0  0  0
   -0.4117   -1.9435    3.9254 H   0  0  0  0  0  0  0  0  0  0  0  0
    0.2458    1.5657    5.0987 H   0  0  0  0  0  0  0  0  0  0  0  0
    2.0786    2.1645    3.4943 H   0  0  0  0  0  0  0  0  0  0  0  0
    2.4540    1.7476    1.0476 H   0  0  0  0  0  0  0  0  0  0  0  0
    1.9996    0.0596    1.2239 H   0  0  0  0  0  0  0  0  0  0  0  0
    0.1405    2.4624    1.6228 H   0  0  0  0  0  0  0  0  0  0  0  0
   -0.2977    0.7671    1.8998 H   0  0  0  0  0  0  0  0  0  0  0  0
    0.3738    1.8018   -1.8437 H   0  0  0  0  0  0  0  0  0  0  0  0
   -1.0416    0.6017    7.4854 H   0  0  0  0  0  0  0  0  0  0  0  0
   -2.7202    1.1750    7.5420 H   0  0  0  0  0  0  0  0  0  0  0  0
   -1.4923    2.0662    6.6416 H   0  0  0  0  0  0  0  0  0  0  0  0
   -3.5852    0.3682    3.9356 H   0  0  0  0  0  0  0  0  0  0  0  0
   -4.1738    1.1106    5.3969 H   0  0  0  0  0  0  0  0  0  0  0  0
   -2.1648    1.3821    2.7446 H   0  0  0  0  0  0  0  0  0  0  0  0
   -3.8669   -1.1853    6.0561 H   0  0  0  0  0  0  0  0  0  0  0  0
   -2.4684   -1.1411    8.1518 H   0  0  0  0  0  0  0  0  0  0  0  0
   -1.1005   -1.8104    7.2766 H   0  0  0  0  0  0  0  0  0  0  0  0
   -2.3787   -3.9564    6.9444 H   0  0  0  0  0  0  0  0  0  0  0  0
   -3.7884   -3.2171    7.7113 H   0  0  0  0  0  0  0  0  0  0  0  0
   -0.6386   -4.1315    9.9287 H   0  0  0  0  0  0  0  0  0  0  0  0
   -1.8788   -3.0360    0.3118 H   0  0  0  0  0  0  0  0  0  0  0  0
   -2.4147   -2.0114    1.6318 H   0  0  0  0  0  0  0  0  0  0  0  0
   -4.4524   -1.8650    1.4388 H   0  0  0  0  0  0  0  0  0  0  0  0
    1.4998   -4.2205    1.2064 H   0  0  0  0  0  0  0  0  0  0  0  0
    0.1132   -4.0150    0.1964 H   0  0  0  0  0  0  0  0  0  0  0  0
    1.1267   -6.6893    1.2758 H   0  0  0  0  0  0  0  0  0  0  0  0
    1.3057   -6.0804   -0.3758 H   0  0  0  0  0  0  0  0  0  0  0  0
   -2.4026   -6.3732   -0.3942 H   0  0  0  0  0  0  0  0  0  0  0  0
    4.3139   -7.0805    4.9149 H   0  0  0  0  0  0  0  0  0  0  0  0
    4.8638   -7.2537    3.2572 H   0  0  0  0  0  0  0  0  0  0  0  0
    2.6703   -8.1467    2.5474 H   0  0  0  0  0  0  0  0  0  0  0  0
    1.9884   -7.8308    4.1369 H   0  0  0  0  0  0  0  0  0  0  0  0
    1.7670   -9.5101    5.1913 H   0  0  0  0  0  0  0  0  0  0  0  0
    6.3748   -5.4244    3.7100 H   0  0  0  0  0  0  0  0  0  0  0  0
    6.4990   -3.7025    3.3810 H   0  0  0  0  0  0  0  0  0  0  0  0
    5.1227   -3.4679    1.1488 H   0  0  0  0  0  0  0  0  0  0  0  0
  1 63  1  0  0  0  0
  1 64  1  0  0  0  0
  1 65  1  0  0  0  0
  2  1  1  1  0  0  0
  2  3  1  0  0  0  0
  2  7  1  0  0  0  0
  2 23  1  0  0  0  0
  3  4  1  0  0  0  0
  3 66  1  0  0  0  0
  3 67  1  0  0  0  0
  4  5  2  0  0  0  0
  4  6  1  0  0  0  0
  6 68  1  0  0  0  0
  7  8  2  0  0  0  0
  7 22  1  0  0  0  0
  8  9  1  0  0  0  0
  8 69  1  0  0  0  0
  9 10  1  0  0  0  0
  9 58  2  0  0  0  0
 10 11  1  0  0  0  0
 10 70  1  0  0  0  0
 11 12  1  0  0  0  0
 11 52  2  0  0  0  0
 12 13  2  0  0  0  0
 12 71  1  0  0  0  0
 13 14  1  0  0  0  0
 13 46  1  0  0  0  0
 14 15  2  0  0  0  0
 15 16  1  0  0  0  0
 15 41  1  0  0  0  0
 16 17  2  0  0  0  0
 16 72  1  0  0  0  0
 17 18  1  0  0  0  0
 17 35  1  0  0  0  0
 18 19  1  0  0  0  0
 18 73  1  0  0  0  0
 19 20  2  0  0  0  0
 19 29  1  0  0  0  0
 20 21  1  0  0  0  0
 20 74  1  0  0  0  0
 21 22  2  0  0  0  0
 21 23  1  0  0  0  0
 23 24  1  0  0  0  0
 23 75  1  6  0  0  0
 24 25  1  0  0  0  0
 24 76  1  0  0  0  0
 24 77  1  0  0  0  0
 25 26  1  0  0  0  0
 25 78  1  0  0  0  0
 25 79  1  0  0  0  0
 26 27  2  0  0  0  0
 26 28  1  0  0  0  0
 28 80  1  0  0  0  0
 29 35  1  0  0  0  0
 29 31  1  6  0  0  0
 29 30  1  0  0  0  0
 30 81  1  0  0  0  0
 30 82  1  0  0  0  0
 30 83  1  0  0  0  0
 31 32  1  0  0  0  0
 31 84  1  0  0  0  0
 31 85  1  0  0  0  0
 32 33  2  0  0  0  0
 32 34  1  0  0  0  0
 34 86  1  0  0  0  0
 35 36  1  0  0  0  0
 35 87  1  1  0  0  0
 36 37  1  0  0  0  0
 36 88  1  0  0  0  0
 36 89  1  0  0  0  0
 37 38  1  0  0  0  0
 37 90  1  0  0  0  0
 37 91  1  0  0  0  0
 38 39  2  0  0  0  0
 38 40  1  0  0  0  0
 40 92  1  0  0  0  0
 41 42  1  0  0  0  0
 41 46  2  0  0  0  0
 42 43  1  0  0  0  0
 42 93  1  0  0  0  0
 42 94  1  0  0  0  0
 43 44  2  0  0  0  0
 43 45  1  0  0  0  0
 45 95  1  0  0  0  0
 46 47  1  0  0  0  0
 47 48  1  0  0  0  0
 47 96  1  0  0  0  0
 47 97  1  0  0  0  0
 48 49  1  0  0  0  0
 48 98  1  0  0  0  0
 48 99  1  0  0  0  0
 49 50  2  0  0  0  0
 49 51  1  0  0  0  0
 51100  1  0  0  0  0
 52 53  1  0  0  0  0
 52 58  1  0  0  0  0
 53 54  1  0  0  0  0
 53101  1  0  0  0  0
 53102  1  0  0  0  0
 54 55  1  0  0  0  0
 54103  1  0  0  0  0
 54104  1  0  0  0  0
 55 56  2  0  0  0  0
 55 57  1  0  0  0  0
 57105  1  0  0  0  0
 58 59  1  0  0  0  0
 59 60  1  0  0  0  0
 59106  1  0  0  0  0
 59107  1  0  0  0  0
 60 61  2  0  0  0  0
 60 62  1  0  0  0  0
 62108  1  0  0  0  0
M  END
$$$$
