CHEBI:17151
 OpenBabel04242415563D

 22 21  0  0  1  0  0  0  0  0999 V2000
    5.5080   -0.0166   -1.7498 O   0  0  0  0  0  0  0  0  0  0  0  0
    4.5977    1.0508   -1.4563 C   0  0  0  0  0  0  0  0  0  0  0  0
    5.0226    1.7075   -0.1350 C   0  0  1  0  0  0  0  0  0  0  0  0
    6.4231    2.0028   -0.2291 O   0  0  0  0  0  0  0  0  0  0  0  0
    4.7467    0.8044    1.0788 C   0  0  2  0  0  0  0  0  0  0  0  0
    3.3571    0.4243    1.0935 O   0  0  0  0  0  0  0  0  0  0  0  0
    5.0482    1.4698    2.4341 C   0  0  1  0  0  0  0  0  0  0  0  0
    4.6211    0.5447    3.4644 O   0  0  0  0  0  0  0  0  0  0  0  0
    6.5171    1.8154    2.6810 C   0  0  0  0  0  0  0  0  0  0  0  0
    6.6614    2.1709    4.0639 O   0  0  0  0  0  0  0  0  0  0  0  0
    5.1236   -0.5045   -2.5005 H   0  0  0  0  0  0  0  0  0  0  0  0
    3.5748    0.6652   -1.4253 H   0  0  0  0  0  0  0  0  0  0  0  0
    4.6821    1.7721   -2.2757 H   0  0  0  0  0  0  0  0  0  0  0  0
    4.4755    2.6502   -0.0209 H   0  0  0  0  0  0  0  0  0  0  0  0
    6.7952    1.2608   -0.7536 H   0  0  0  0  0  0  0  0  0  0  0  0
    5.3268   -0.1236    1.0032 H   0  0  0  0  0  0  0  0  0  0  0  0
    3.2223    0.0491    1.9904 H   0  0  0  0  0  0  0  0  0  0  0  0
    4.4233    2.3601    2.5721 H   0  0  0  0  0  0  0  0  0  0  0  0
    5.0443    0.8907    4.2794 H   0  0  0  0  0  0  0  0  0  0  0  0
    6.8448    2.6656    2.0788 H   0  0  0  0  0  0  0  0  0  0  0  0
    7.1629    0.9514    2.4964 H   0  0  0  0  0  0  0  0  0  0  0  0
    7.5917    2.4343    4.1825 H   0  0  0  0  0  0  0  0  0  0  0  0
  1  2  1  0  0  0  0
  1 11  1  0  0  0  0
  2  3  1  0  0  0  0
  2 12  1  0  0  0  0
  2 13  1  0  0  0  0
  3  4  1  0  0  0  0
  3 14  1  6  0  0  0
  4 15  1  0  0  0  0
  5  7  1  0  0  0  0
  5  6  1  0  0  0  0
  5  3  1  0  0  0  0
  5 16  1  6  0  0  0
  6 17  1  0  0  0  0
  7  8  1  0  0  0  0
  7  9  1  0  0  0  0
  7 18  1  1  0  0  0
  8 19  1  0  0  0  0
  9 10  1  0  0  0  0
  9 20  1  0  0  0  0
  9 21  1  0  0  0  0
 10 22  1  0  0  0  0
M  END
$$$$
