CHEBI:15558
 OpenBabel04242412473D

 55 54  0  0  1  0  0  0  0  0999 V2000
    3.6665   -8.2234    5.8739 C   0  0  0  0  0  0  0  0  0  0  0  0
    4.8996   -9.1088    5.9040 C   0  0  0  0  0  0  0  0  0  0  0  0
    6.0544   -8.5549    6.7357 C   0  0  0  0  0  0  0  0  0  0  0  0
    5.9723   -8.7155    8.2589 C   0  0  0  0  0  0  0  0  0  0  0  0
    5.0286   -7.8064    9.0585 C   0  0  0  0  0  0  0  0  0  0  0  0
    5.4405   -6.3323    9.2210 C   0  0  2  0  0  0  0  0  0  0  0  0
    4.4908   -5.7093   10.0825 O   0  0  0  0  0  0  0  0  0  0  0  0
    5.4503   -5.5550    7.9422 C   0  0  0  0  0  0  0  0  0  0  0  0
    6.5405   -4.9347    7.4662 C   0  0  0  0  0  0  0  0  0  0  0  0
    6.6041   -4.4232    6.1232 C   0  0  0  0  0  0  0  0  0  0  0  0
    7.5516   -4.7080    5.2125 C   0  0  0  0  0  0  0  0  0  0  0  0
    8.7716   -5.6065    5.2082 C   0  0  0  0  0  0  0  0  0  0  0  0
    9.0255   -6.4675    6.4121 C   0  0  0  0  0  0  0  0  0  0  0  0
   10.2029   -6.9084    6.8844 C   0  0  0  0  0  0  0  0  0  0  0  0
   11.5640   -6.6608    6.3101 C   0  0  0  0  0  0  0  0  0  0  0  0
   12.4571   -5.9838    7.3083 C   0  0  0  0  0  0  0  0  0  0  0  0
   13.7988   -6.0413    7.3136 C   0  0  0  0  0  0  0  0  0  0  0  0
   14.6310   -6.7484    6.2812 C   0  0  0  0  0  0  0  0  0  0  0  0
   16.1184   -6.4419    6.4604 C   0  0  0  0  0  0  0  0  0  0  0  0
   16.9645   -7.1566    5.4135 C   0  0  0  0  0  0  0  0  0  0  0  0
   18.4247   -6.8246    5.5784 C   0  0  0  0  0  0  0  0  0  0  0  0
   19.0601   -6.1331    4.7963 O   0  0  0  0  0  0  0  0  0  0  0  0
   18.9809   -7.3723    6.6809 O   0  0  0  0  0  0  0  0  0  0  0  0
    2.9681   -8.5819    5.1114 H   0  0  0  0  0  0  0  0  0  0  0  0
    3.9254   -7.1894    5.6261 H   0  0  0  0  0  0  0  0  0  0  0  0
    3.1365   -8.2357    6.8269 H   0  0  0  0  0  0  0  0  0  0  0  0
    5.2579   -9.1982    4.8696 H   0  0  0  0  0  0  0  0  0  0  0  0
    4.6368  -10.1195    6.2318 H   0  0  0  0  0  0  0  0  0  0  0  0
    6.2201   -7.5195    6.4473 H   0  0  0  0  0  0  0  0  0  0  0  0
    6.9564   -9.0966    6.4177 H   0  0  0  0  0  0  0  0  0  0  0  0
    6.9839   -8.5846    8.6662 H   0  0  0  0  0  0  0  0  0  0  0  0
    5.7010   -9.7576    8.4721 H   0  0  0  0  0  0  0  0  0  0  0  0
    4.9680   -8.2269   10.0732 H   0  0  0  0  0  0  0  0  0  0  0  0
    4.0041   -7.8750    8.6851 H   0  0  0  0  0  0  0  0  0  0  0  0
    6.4153   -6.2851    9.7209 H   0  0  0  0  0  0  0  0  0  0  0  0
    4.7014   -4.7600   10.0955 H   0  0  0  0  0  0  0  0  0  0  0  0
    4.5408   -5.5996    7.3475 H   0  0  0  0  0  0  0  0  0  0  0  0
    7.4598   -4.9098    8.0465 H   0  0  0  0  0  0  0  0  0  0  0  0
    5.7770   -3.7795    5.8227 H   0  0  0  0  0  0  0  0  0  0  0  0
    7.4116   -4.2281    4.2411 H   0  0  0  0  0  0  0  0  0  0  0  0
    9.6377   -4.9685    5.0042 H   0  0  0  0  0  0  0  0  0  0  0  0
    8.6590   -6.2831    4.3510 H   0  0  0  0  0  0  0  0  0  0  0  0
    8.1562   -6.8350    6.9400 H   0  0  0  0  0  0  0  0  0  0  0  0
   10.1791   -7.5540    7.7631 H   0  0  0  0  0  0  0  0  0  0  0  0
   11.5133   -6.0537    5.4023 H   0  0  0  0  0  0  0  0  0  0  0  0
   11.9792   -7.6360    6.0275 H   0  0  0  0  0  0  0  0  0  0  0  0
   11.9692   -5.3969    8.0858 H   0  0  0  0  0  0  0  0  0  0  0  0
   14.3226   -5.5092    8.1064 H   0  0  0  0  0  0  0  0  0  0  0  0
   14.3168   -6.4344    5.2781 H   0  0  0  0  0  0  0  0  0  0  0  0
   14.4723   -7.8301    6.3642 H   0  0  0  0  0  0  0  0  0  0  0  0
   16.4354   -6.7450    7.4664 H   0  0  0  0  0  0  0  0  0  0  0  0
   16.2904   -5.3597    6.3951 H   0  0  0  0  0  0  0  0  0  0  0  0
   16.6607   -6.8496    4.4055 H   0  0  0  0  0  0  0  0  0  0  0  0
   16.8414   -8.2442    5.4638 H   0  0  0  0  0  0  0  0  0  0  0  0
   18.3644   -7.9103    7.2123 H   0  0  0  0  0  0  0  0  0  0  0  0
  1  2  1  0  0  0  0
  1 24  1  0  0  0  0
  1 25  1  0  0  0  0
  1 26  1  0  0  0  0
  2  3  1  0  0  0  0
  2 27  1  0  0  0  0
  2 28  1  0  0  0  0
  3  4  1  0  0  0  0
  3 29  1  0  0  0  0
  3 30  1  0  0  0  0
  4  5  1  0  0  0  0
  4 31  1  0  0  0  0
  4 32  1  0  0  0  0
  5 33  1  0  0  0  0
  5 34  1  0  0  0  0
  6  8  1  0  0  0  0
  6  7  1  0  0  0  0
  6  5  1  0  0  0  0
  6 35  1  1  0  0  0
  7 36  1  0  0  0  0
  8  9  2  0  0  0  0
  8 37  1  0  0  0  0
  9 10  1  0  0  0  0
  9 38  1  0  0  0  0
 10 11  2  0  0  0  0
 10 39  1  0  0  0  0
 11 12  1  0  0  0  0
 11 40  1  0  0  0  0
 12 13  1  0  0  0  0
 12 41  1  0  0  0  0
 12 42  1  0  0  0  0
 13 14  2  0  0  0  0
 13 43  1  0  0  0  0
 14 15  1  0  0  0  0
 14 44  1  0  0  0  0
 15 16  1  0  0  0  0
 15 45  1  0  0  0  0
 15 46  1  0  0  0  0
 16 17  2  0  0  0  0
 16 47  1  0  0  0  0
 17 18  1  0  0  0  0
 17 48  1  0  0  0  0
 18 19  1  0  0  0  0
 18 49  1  0  0  0  0
 18 50  1  0  0  0  0
 19 20  1  0  0  0  0
 19 51  1  0  0  0  0
 19 52  1  0  0  0  0
 20 21  1  0  0  0  0
 20 53  1  0  0  0  0
 20 54  1  0  0  0  0
 21 22  2  0  0  0  0
 21 23  1  0  0  0  0
 23 55  1  0  0  0  0
M  END
$$$$
