CHEBI:16058
 OpenBabel04242413423D

 25 25  0  0  1  0  0  0  0  0999 V2000
    0.9863   -1.0541    2.1997 C   0  0  0  0  0  0  0  0  0  0  0  0
    1.7946    0.1151    2.2599 O   0  0  0  0  0  0  0  0  0  0  0  0
    2.7886    0.1962    1.2098 C   0  0  1  0  0  0  0  0  0  0  0  0
    3.2562    1.6677    1.2025 C   0  0  2  0  0  0  0  0  0  0  0  0
    2.2262    2.4963    0.6348 O   0  0  0  0  0  0  0  0  0  0  0  0
    4.5315    1.8938    0.3853 C   0  0  1  0  0  0  0  0  0  0  0  0
    4.8972    3.2797    0.5132 O   0  0  0  0  0  0  0  0  0  0  0  0
    5.6754    1.0006    0.8533 C   0  0  1  0  0  0  0  0  0  0  0  0
    6.1318    1.3989    2.1428 O   0  0  0  0  0  0  0  0  0  0  0  0
    5.2179   -0.4441    0.7654 C   0  0  0  0  0  0  0  0  0  0  0  0
    5.8903   -1.3127    0.2043 O   0  0  0  0  0  0  0  0  0  0  0  0
    3.9265   -0.8031    1.4877 C   0  0  2  0  0  0  0  0  0  0  0  0
    3.5285   -2.1183    1.0764 O   0  0  0  0  0  0  0  0  0  0  0  0
    0.1116   -0.8918    2.8358 H   0  0  0  0  0  0  0  0  0  0  0  0
    1.5309   -1.9143    2.5969 H   0  0  0  0  0  0  0  0  0  0  0  0
    0.6406   -1.2517    1.1809 H   0  0  0  0  0  0  0  0  0  0  0  0
    2.2960   -0.0276    0.2542 H   0  0  0  0  0  0  0  0  0  0  0  0
    3.3875    2.0296    2.2298 H   0  0  0  0  0  0  0  0  0  0  0  0
    2.6249    3.3827    0.5247 H   0  0  0  0  0  0  0  0  0  0  0  0
    4.3180    1.7211   -0.6766 H   0  0  0  0  0  0  0  0  0  0  0  0
    5.6037    3.3341    1.1886 H   0  0  0  0  0  0  0  0  0  0  0  0
    6.5262    1.1335    0.1755 H   0  0  0  0  0  0  0  0  0  0  0  0
    5.4474    1.2525    2.8186 H   0  0  0  0  0  0  0  0  0  0  0  0
    4.1438   -0.8551    2.5603 H   0  0  0  0  0  0  0  0  0  0  0  0
    4.3508   -2.6117    0.8749 H   0  0  0  0  0  0  0  0  0  0  0  0
  1  2  1  0  0  0  0
  1 14  1  0  0  0  0
  1 15  1  0  0  0  0
  1 16  1  0  0  0  0
  3  4  1  0  0  0  0
  3 12  1  0  0  0  0
  3  2  1  0  0  0  0
  3 17  1  6  0  0  0
  4  6  1  0  0  0  0
  4  5  1  0  0  0  0
  4 18  1  1  0  0  0
  5 19  1  0  0  0  0
  6  7  1  0  0  0  0
  6  8  1  0  0  0  0
  6 20  1  6  0  0  0
  7 21  1  0  0  0  0
  8  9  1  0  0  0  0
  8 10  1  0  0  0  0
  8 22  1  6  0  0  0
  9 23  1  0  0  0  0
 10 11  2  0  0  0  0
 10 12  1  0  0  0  0
 12 13  1  0  0  0  0
 12 24  1  1  0  0  0
 13 25  1  0  0  0  0
M  END
$$$$
