CHEBI:17546
 OpenBabel04242416473D

 27 26  0  0  0  0  0  0  0  0999 V2000
    1.2372    0.9438    0.0196 C   0  0  0  0  0  0  0  0  0  0  0  0
    2.4298    0.3510    0.2199 C   0  0  0  0  0  0  0  0  0  0  0  0
    3.0323   -0.5300   -0.8573 C   0  0  0  0  0  0  0  0  0  0  0  0
    3.9854    0.2260   -1.7420 C   0  0  0  0  0  0  0  0  0  0  0  0
    5.2875   -0.0057   -1.9970 C   0  0  0  0  0  0  0  0  0  0  0  0
    6.0885    0.8631   -2.9230 C   0  0  0  0  0  0  0  0  0  0  0  0
    6.0438   -1.1307   -1.3789 C   0  0  0  0  0  0  0  0  0  0  0  0
    7.2308   -1.3308   -1.6103 O   0  0  0  0  0  0  0  0  0  0  0  0
    3.1550    0.5213    1.5516 C   0  0  0  0  0  0  0  0  0  0  0  0
    3.3525   -0.8084    2.2844 C   0  0  0  0  0  0  0  0  0  0  0  0
    4.4846    1.2643    1.4148 C   0  0  0  0  0  0  0  0  0  0  0  0
    0.6912    0.8275   -0.9122 H   0  0  0  0  0  0  0  0  0  0  0  0
    0.7734    1.5672    0.7786 H   0  0  0  0  0  0  0  0  0  0  0  0
    2.2312   -0.9149   -1.5034 H   0  0  0  0  0  0  0  0  0  0  0  0
    3.4737   -1.4220   -0.4103 H   0  0  0  0  0  0  0  0  0  0  0  0
    3.5215    1.0748   -2.2468 H   0  0  0  0  0  0  0  0  0  0  0  0
    5.4781    1.6497   -3.3793 H   0  0  0  0  0  0  0  0  0  0  0  0
    6.5169    0.2672   -3.7358 H   0  0  0  0  0  0  0  0  0  0  0  0
    6.9041    1.3509   -2.3789 H   0  0  0  0  0  0  0  0  0  0  0  0
    5.4877   -1.7841   -0.6925 H   0  0  0  0  0  0  0  0  0  0  0  0
    2.5252    1.1404    2.2063 H   0  0  0  0  0  0  0  0  0  0  0  0
    4.0649   -1.4601    1.7681 H   0  0  0  0  0  0  0  0  0  0  0  0
    2.4046   -1.3482    2.3833 H   0  0  0  0  0  0  0  0  0  0  0  0
    3.7428   -0.6338    3.2932 H   0  0  0  0  0  0  0  0  0  0  0  0
    5.2420    0.6570    0.9113 H   0  0  0  0  0  0  0  0  0  0  0  0
    4.8807    1.5199    2.4040 H   0  0  0  0  0  0  0  0  0  0  0  0
    4.3614    2.1983    0.8561 H   0  0  0  0  0  0  0  0  0  0  0  0
  1  2  2  0  0  0  0
  1 12  1  0  0  0  0
  1 13  1  0  0  0  0
  2  3  1  0  0  0  0
  2  9  1  0  0  0  0
  3  4  1  0  0  0  0
  3 14  1  0  0  0  0
  3 15  1  0  0  0  0
  4  5  2  0  0  0  0
  4 16  1  0  0  0  0
  5  6  1  0  0  0  0
  5  7  1  0  0  0  0
  6 17  1  0  0  0  0
  6 18  1  0  0  0  0
  6 19  1  0  0  0  0
  7  8  2  0  0  0  0
  7 20  1  0  0  0  0
  9 10  1  0  0  0  0
  9 11  1  0  0  0  0
  9 21  1  0  0  0  0
 10 22  1  0  0  0  0
 10 23  1  0  0  0  0
 10 24  1  0  0  0  0
 11 25  1  0  0  0  0
 11 26  1  0  0  0  0
 11 27  1  0  0  0  0
M  END
$$$$
