CHEBI:3558
 OpenBabel04242410523D

 67 68  0  0  1  0  0  0  0  0999 V2000
   -1.2260    1.5880   -1.0760 C   0  0  0  0  0  0  0  0  0  0  0  0
   -0.5466    2.8054   -0.7897 O   0  0  0  0  0  0  0  0  0  0  0  0
    0.0735    3.3782   -1.9502 C   0  0  0  0  0  0  0  0  0  0  0  0
    1.3903    2.7013   -2.2842 C   0  0  0  0  0  0  0  0  0  0  0  0
    2.3394    2.4988   -1.2785 C   0  0  0  0  0  0  0  0  0  0  0  0
    2.3622    3.2929    0.0173 C   0  0  0  0  0  0  0  0  0  0  0  0
    2.2090    2.3729    1.2306 C   0  0  0  0  0  0  0  0  0  0  0  0
    3.6553    4.1075    0.1159 C   0  0  0  0  0  0  0  0  0  0  0  0
    3.2966    1.5549   -1.3943 N   0  0  0  0  0  0  0  0  0  0  0  0
    3.2217    0.6530   -2.4009 C   0  0  0  0  0  0  0  0  0  0  0  0
    3.9989   -0.6389   -2.1387 C   0  0  0  0  0  0  0  0  0  0  0  0
    4.8644   -1.1117   -3.3101 C   0  0  0  0  0  0  0  0  0  0  0  0
    4.9194   -0.5230   -0.9041 C   0  0  0  0  0  0  0  0  0  0  0  0
    2.3498    0.8636   -3.4885 C   0  0  0  0  0  0  0  0  0  0  0  0
    1.7774   -0.3309   -4.1642 C   0  0  0  0  0  0  0  0  0  0  0  0
    2.0498   -0.8421   -5.3748 C   0  0  0  0  0  0  0  0  0  0  0  0
    1.1921   -1.8681   -6.0702 C   0  0  1  0  0  0  0  0  0  0  0  0
    0.9814   -2.9867   -5.2193 O   0  0  0  0  0  0  0  0  0  0  0  0
   -0.1576   -1.3529   -6.6296 C   0  0  0  0  0  0  0  0  0  0  0  0
   -1.2798   -1.0815   -5.6044 C   0  0  1  0  0  0  0  0  0  0  0  0
   -0.9600    0.0648   -4.8125 O   0  0  0  0  0  0  0  0  0  0  0  0
   -2.6166   -0.7407   -6.2625 C   0  0  0  0  0  0  0  0  0  0  0  0
   -3.2380   -1.8609   -7.0343 C   0  0  0  0  0  0  0  0  0  0  0  0
   -3.7739   -1.7599   -8.1266 O   0  0  0  0  0  0  0  0  0  0  0  0
   -3.2599   -3.0284   -6.3707 O   0  0  0  0  0  0  0  0  0  0  0  0
    1.6116    2.0919   -3.5459 C   0  0  0  0  0  0  0  0  0  0  0  0
    1.1572    2.7770   -4.8395 C   0  0  0  0  0  0  0  0  0  0  0  0
    1.4022    2.2566   -6.1225 C   0  0  0  0  0  0  0  0  0  0  0  0
    1.0016    2.8829   -7.3151 C   0  0  0  0  0  0  0  0  0  0  0  0
    0.3666    4.1045   -7.2621 C   0  0  0  0  0  0  0  0  0  0  0  0
   -0.0147    4.7134   -8.3912 F   0  0  0  0  0  0  0  0  0  0  0  0
    0.1764    4.7211   -6.0438 C   0  0  0  0  0  0  0  0  0  0  0  0
    0.5986    4.0789   -4.8666 C   0  0  0  0  0  0  0  0  0  0  0  0
   -0.5359    0.8293   -1.4560 H   0  0  0  0  0  0  0  0  0  0  0  0
   -2.0308    1.7589   -1.7981 H   0  0  0  0  0  0  0  0  0  0  0  0
   -1.6694    1.2168   -0.1481 H   0  0  0  0  0  0  0  0  0  0  0  0
    0.2515    4.4382   -1.7402 H   0  0  0  0  0  0  0  0  0  0  0  0
   -0.6562    3.3172   -2.7629 H   0  0  0  0  0  0  0  0  0  0  0  0
    1.5405    4.0144    0.0464 H   0  0  0  0  0  0  0  0  0  0  0  0
    3.0475    1.6736    1.3202 H   0  0  0  0  0  0  0  0  0  0  0  0
    1.2889    1.7823    1.1637 H   0  0  0  0  0  0  0  0  0  0  0  0
    2.1647    2.9594    2.1546 H   0  0  0  0  0  0  0  0  0  0  0  0
    4.5439    3.4665    0.1182 H   0  0  0  0  0  0  0  0  0  0  0  0
    3.6682    4.7020    1.0357 H   0  0  0  0  0  0  0  0  0  0  0  0
    3.7447    4.7981   -0.7304 H   0  0  0  0  0  0  0  0  0  0  0  0
    3.2624   -1.4197   -1.9070 H   0  0  0  0  0  0  0  0  0  0  0  0
    5.4784   -0.3004   -3.7127 H   0  0  0  0  0  0  0  0  0  0  0  0
    4.2633   -1.5202   -4.1228 H   0  0  0  0  0  0  0  0  0  0  0  0
    5.5323   -1.9236   -2.9983 H   0  0  0  0  0  0  0  0  0  0  0  0
    5.6795    0.2546   -1.0482 H   0  0  0  0  0  0  0  0  0  0  0  0
    5.4390   -1.4675   -0.7099 H   0  0  0  0  0  0  0  0  0  0  0  0
    4.3529   -0.2782    0.0015 H   0  0  0  0  0  0  0  0  0  0  0  0
    0.9550   -0.7636   -3.5943 H   0  0  0  0  0  0  0  0  0  0  0  0
    2.8766   -0.4458   -5.9589 H   0  0  0  0  0  0  0  0  0  0  0  0
    1.7727   -2.2366   -6.9264 H   0  0  0  0  0  0  0  0  0  0  0  0
    1.8605   -3.2702   -4.9134 H   0  0  0  0  0  0  0  0  0  0  0  0
   -0.5224   -2.1247   -7.3199 H   0  0  0  0  0  0  0  0  0  0  0  0
    0.0268   -0.4495   -7.2242 H   0  0  0  0  0  0  0  0  0  0  0  0
   -1.3836   -1.9390   -4.9305 H   0  0  0  0  0  0  0  0  0  0  0  0
   -1.5383    0.0509   -4.0315 H   0  0  0  0  0  0  0  0  0  0  0  0
   -2.4890    0.1196   -6.9313 H   0  0  0  0  0  0  0  0  0  0  0  0
   -3.3399   -0.4230   -5.5002 H   0  0  0  0  0  0  0  0  0  0  0  0
   -3.7439   -3.6339   -6.9718 H   0  0  0  0  0  0  0  0  0  0  0  0
    1.9628    1.3510   -6.2552 H   0  0  0  0  0  0  0  0  0  0  0  0
    1.2082    2.4223   -8.2757 H   0  0  0  0  0  0  0  0  0  0  0  0
   -0.2735    5.7080   -6.0050 H   0  0  0  0  0  0  0  0  0  0  0  0
    0.5032    4.6777   -3.9686 H   0  0  0  0  0  0  0  0  0  0  0  0
  1  2  1  0  0  0  0
  1 34  1  0  0  0  0
  1 35  1  0  0  0  0
  1 36  1  0  0  0  0
  2  3  1  0  0  0  0
  3  4  1  0  0  0  0
  3 37  1  0  0  0  0
  3 38  1  0  0  0  0
  4  5  1  0  0  0  0
  4 26  2  0  0  0  0
  5  6  1  0  0  0  0
  5  9  2  0  0  0  0
  6  7  1  0  0  0  0
  6  8  1  0  0  0  0
  6 39  1  0  0  0  0
  7 40  1  0  0  0  0
  7 41  1  0  0  0  0
  7 42  1  0  0  0  0
  8 43  1  0  0  0  0
  8 44  1  0  0  0  0
  8 45  1  0  0  0  0
  9 10  1  0  0  0  0
 10 11  1  0  0  0  0
 10 14  2  0  0  0  0
 11 12  1  0  0  0  0
 11 13  1  0  0  0  0
 11 46  1  0  0  0  0
 12 47  1  0  0  0  0
 12 48  1  0  0  0  0
 12 49  1  0  0  0  0
 13 50  1  0  0  0  0
 13 51  1  0  0  0  0
 13 52  1  0  0  0  0
 14 15  1  0  0  0  0
 14 26  1  0  0  0  0
 15 16  2  0  0  0  0
 15 53  1  0  0  0  0
 16 17  1  0  0  0  0
 16 54  1  0  0  0  0
 17 18  1  0  0  0  0
 17 19  1  0  0  0  0
 17 55  1  6  0  0  0
 18 56  1  0  0  0  0
 19 20  1  0  0  0  0
 19 57  1  0  0  0  0
 19 58  1  0  0  0  0
 20 21  1  0  0  0  0
 20 22  1  0  0  0  0
 20 59  1  1  0  0  0
 21 60  1  0  0  0  0
 22 23  1  0  0  0  0
 22 61  1  0  0  0  0
 22 62  1  0  0  0  0
 23 24  2  0  0  0  0
 23 25  1  0  0  0  0
 25 63  1  0  0  0  0
 26 27  1  0  0  0  0
 27 28  1  0  0  0  0
 27 33  2  0  0  0  0
 28 29  2  0  0  0  0
 28 64  1  0  0  0  0
 29 30  1  0  0  0  0
 29 65  1  0  0  0  0
 30 31  1  0  0  0  0
 30 32  2  0  0  0  0
 32 33  1  0  0  0  0
 32 66  1  0  0  0  0
 33 67  1  0  0  0  0
M  END
$$$$
