CHEBI:4470
 OpenBabel04242410583D

 45 48  0  0  1  0  0  0  0  0999 V2000
    3.0638    0.7577   -0.2110 C   0  0  0  0  0  0  0  0  0  0  0  0
    2.6366   -0.3992   -0.9206 O   0  0  0  0  0  0  0  0  0  0  0  0
    3.4209   -1.5122   -0.7829 C   0  0  0  0  0  0  0  0  0  0  0  0
    3.2589   -2.4736   -1.7758 C   0  0  0  0  0  0  0  0  0  0  0  0
    4.0095   -3.6471   -1.7465 C   0  0  0  0  0  0  0  0  0  0  0  0
    4.9345   -3.8812   -0.7176 C   0  0  0  0  0  0  0  0  0  0  0  0
    5.1196   -2.9151    0.2930 C   0  0  0  0  0  0  0  0  0  0  0  0
    4.3228   -1.7479    0.2567 C   0  0  0  0  0  0  0  0  0  0  0  0
    6.1328   -3.1385    1.4459 C   0  0  2  0  0  0  0  0  0  0  0  0
    6.8649   -1.7946    1.7697 C   0  0  0  0  0  0  0  0  0  0  0  0
    8.3551   -1.9664    2.0578 C   0  0  0  0  0  0  0  0  0  0  0  0
    9.0852   -2.6017    0.8704 C   0  0  0  0  0  0  0  0  0  0  0  0
    8.2673   -3.6889    0.1609 C   0  0  0  0  0  0  0  0  0  0  0  0
    7.1765   -4.2310    1.0911 C   0  0  2  0  0  0  0  0  0  0  0  0
    6.4229   -5.4743    0.5913 C   0  0  2  0  0  0  0  0  0  0  0  0
    5.7260   -5.1680   -0.7446 C   0  0  0  0  0  0  0  0  0  0  0  0
    5.3918   -5.9298    1.5616 N   0  0  0  0  0  0  0  0  0  0  0  0
    5.4490   -7.3742    1.7724 C   0  0  0  0  0  0  0  0  0  0  0  0
    5.3948   -5.2057    2.8342 C   0  0  0  0  0  0  0  0  0  0  0  0
    5.3376   -3.6712    2.6759 C   0  0  0  0  0  0  0  0  0  0  0  0
    2.4735    1.6064   -0.5699 H   0  0  0  0  0  0  0  0  0  0  0  0
    4.1187    0.9818   -0.4051 H   0  0  0  0  0  0  0  0  0  0  0  0
    2.8745    0.6498    0.8615 H   0  0  0  0  0  0  0  0  0  0  0  0
    2.5466   -2.3069   -2.5789 H   0  0  0  0  0  0  0  0  0  0  0  0
    3.8650   -4.3863   -2.5314 H   0  0  0  0  0  0  0  0  0  0  0  0
    4.4142   -1.0284    1.0640 H   0  0  0  0  0  0  0  0  0  0  0  0
    6.3838   -1.2847    2.6136 H   0  0  0  0  0  0  0  0  0  0  0  0
    6.7996   -1.1002    0.9212 H   0  0  0  0  0  0  0  0  0  0  0  0
    8.4874   -2.5841    2.9545 H   0  0  0  0  0  0  0  0  0  0  0  0
    8.8078   -0.9943    2.2848 H   0  0  0  0  0  0  0  0  0  0  0  0
   10.0324   -3.0242    1.2265 H   0  0  0  0  0  0  0  0  0  0  0  0
    9.3511   -1.8274    0.1404 H   0  0  0  0  0  0  0  0  0  0  0  0
    8.9365   -4.4950   -0.1616 H   0  0  0  0  0  0  0  0  0  0  0  0
    7.8321   -3.2635   -0.7506 H   0  0  0  0  0  0  0  0  0  0  0  0
    7.7138   -4.5363    2.0023 H   0  0  0  0  0  0  0  0  0  0  0  0
    7.1593   -6.2716    0.4220 H   0  0  0  0  0  0  0  0  0  0  0  0
    5.0663   -6.0021   -1.0182 H   0  0  0  0  0  0  0  0  0  0  0  0
    6.4772   -5.0897   -1.5406 H   0  0  0  0  0  0  0  0  0  0  0  0
    4.6198   -7.7071    2.4062 H   0  0  0  0  0  0  0  0  0  0  0  0
    6.3888   -7.6806    2.2461 H   0  0  0  0  0  0  0  0  0  0  0  0
    5.3512   -7.9090    0.8212 H   0  0  0  0  0  0  0  0  0  0  0  0
    6.2837   -5.4727    3.4218 H   0  0  0  0  0  0  0  0  0  0  0  0
    4.5313   -5.5124    3.4381 H   0  0  0  0  0  0  0  0  0  0  0  0
    5.7439   -3.2422    3.6011 H   0  0  0  0  0  0  0  0  0  0  0  0
    4.2874   -3.3551    2.6336 H   0  0  0  0  0  0  0  0  0  0  0  0
  1  2  1  0  0  0  0
  1 21  1  0  0  0  0
  1 22  1  0  0  0  0
  1 23  1  0  0  0  0
  2  3  1  0  0  0  0
  3  4  1  0  0  0  0
  3  8  2  0  0  0  0
  4  5  2  0  0  0  0
  4 24  1  0  0  0  0
  5  6  1  0  0  0  0
  5 25  1  0  0  0  0
  6  7  2  0  0  0  0
  6 16  1  0  0  0  0
  7  8  1  0  0  0  0
  8 26  1  0  0  0  0
  9  7  1  6  0  0  0
  9 10  1  0  0  0  0
  9 14  1  0  0  0  0
  9 20  1  0  0  0  0
 10 11  1  0  0  0  0
 10 27  1  0  0  0  0
 10 28  1  0  0  0  0
 11 12  1  0  0  0  0
 11 29  1  0  0  0  0
 11 30  1  0  0  0  0
 12 13  1  0  0  0  0
 12 31  1  0  0  0  0
 12 32  1  0  0  0  0
 13 14  1  0  0  0  0
 13 33  1  0  0  0  0
 13 34  1  0  0  0  0
 14 15  1  0  0  0  0
 14 35  1  1  0  0  0
 15 16  1  0  0  0  0
 15 17  1  0  0  0  0
 15 36  1  6  0  0  0
 16 37  1  0  0  0  0
 16 38  1  0  0  0  0
 17 18  1  0  0  0  0
 17 19  1  0  0  0  0
 18 39  1  0  0  0  0
 18 40  1  0  0  0  0
 18 41  1  0  0  0  0
 19 20  1  0  0  0  0
 19 42  1  0  0  0  0
 19 43  1  0  0  0  0
 20 44  1  0  0  0  0
 20 45  1  0  0  0  0
M  END
$$$$
