CHEBI:16827
 OpenBabel04242415203D

 55 58  0  0  1  0  0  0  0  0999 V2000
    0.9311   -0.4017    0.5532 C   0  0  0  0  0  0  0  0  0  0  0  0
    2.4636   -0.3589    0.2997 C   0  0  2  0  0  0  0  0  0  0  0  0
    3.1991   -0.6466    1.6137 C   0  0  0  0  0  0  0  0  0  0  0  0
    2.9717   -2.0959    2.0869 C   0  0  2  0  0  0  0  0  0  0  0  0
    3.7571   -2.2998    3.2583 O   0  0  0  0  0  0  0  0  0  0  0  0
    3.3074   -3.1674    1.0067 C   0  0  1  0  0  0  0  0  0  0  0  0
    2.6603   -2.8370   -0.3783 C   0  0  1  0  0  0  0  0  0  0  0  0
    3.1904   -3.7741   -1.4906 C   0  0  0  0  0  0  0  0  0  0  0  0
    3.7045   -5.1192   -0.9848 C   0  0  0  0  0  0  0  0  0  0  0  0
    2.9014   -5.5620    0.2028 C   0  0  0  0  0  0  0  0  0  0  0  0
    2.1022   -6.6398    0.1245 C   0  0  0  0  0  0  0  0  0  0  0  0
    1.2620   -7.0650    1.2664 C   0  0  0  0  0  0  0  0  0  0  0  0
    0.5988   -8.0961    1.1725 O   0  0  0  0  0  0  0  0  0  0  0  0
    1.2904   -6.2420    2.5289 C   0  0  0  0  0  0  0  0  0  0  0  0
    1.6962   -4.7960    2.2525 C   0  0  0  0  0  0  0  0  0  0  0  0
    3.0138   -4.6677    1.4438 C   0  0  2  0  0  0  0  0  0  0  0  0
    4.1954   -5.1971    2.2936 C   0  0  0  0  0  0  0  0  0  0  0  0
    2.9426   -1.3761   -0.7497 C   0  0  2  0  0  0  0  0  0  0  0  0
    2.3865   -0.8307   -2.0613 C   0  0  0  0  0  0  0  0  0  0  0  0
    2.4534    0.7004   -1.8977 C   0  0  0  0  0  0  0  0  0  0  0  0
    2.7835    0.9799   -0.4120 C   0  0  2  0  0  0  0  0  0  0  0  0
    4.2313    1.4610   -0.2834 C   0  0  0  0  0  0  0  0  0  0  0  0
    5.2030    0.7683   -0.5964 O   0  0  0  0  0  0  0  0  0  0  0  0
    4.4433    2.8674    0.2625 C   0  0  0  0  0  0  0  0  0  0  0  0
    5.8174    3.2258    0.2667 O   0  0  0  0  0  0  0  0  0  0  0  0
    0.5811   -1.3793    0.8941 H   0  0  0  0  0  0  0  0  0  0  0  0
    0.3500   -0.1562   -0.3417 H   0  0  0  0  0  0  0  0  0  0  0  0
    0.6541    0.3301    1.3213 H   0  0  0  0  0  0  0  0  0  0  0  0
    2.8815    0.0523    2.3984 H   0  0  0  0  0  0  0  0  0  0  0  0
    4.2789   -0.4865    1.5092 H   0  0  0  0  0  0  0  0  0  0  0  0
    1.9284   -2.1911    2.3988 H   0  0  0  0  0  0  0  0  0  0  0  0
    4.6927   -2.1757    3.0200 H   0  0  0  0  0  0  0  0  0  0  0  0
    4.3963   -3.0956    0.8539 H   0  0  0  0  0  0  0  0  0  0  0  0
    1.5766   -2.9922   -0.3033 H   0  0  0  0  0  0  0  0  0  0  0  0
    4.0035   -3.2988   -2.0538 H   0  0  0  0  0  0  0  0  0  0  0  0
    2.3826   -3.9392   -2.2158 H   0  0  0  0  0  0  0  0  0  0  0  0
    4.7593   -5.0334   -0.6956 H   0  0  0  0  0  0  0  0  0  0  0  0
    3.6754   -5.8508   -1.8011 H   0  0  0  0  0  0  0  0  0  0  0  0
    2.0241   -7.2516   -0.7674 H   0  0  0  0  0  0  0  0  0  0  0  0
    1.9750   -6.7195    3.2373 H   0  0  0  0  0  0  0  0  0  0  0  0
    0.2868   -6.2516    2.9684 H   0  0  0  0  0  0  0  0  0  0  0  0
    1.7802   -4.2839    3.2181 H   0  0  0  0  0  0  0  0  0  0  0  0
    0.8814   -4.3057    1.7025 H   0  0  0  0  0  0  0  0  0  0  0  0
    4.1375   -6.2805    2.4494 H   0  0  0  0  0  0  0  0  0  0  0  0
    4.2222   -4.7344    3.2844 H   0  0  0  0  0  0  0  0  0  0  0  0
    5.1589   -5.0017    1.8086 H   0  0  0  0  0  0  0  0  0  0  0  0
    4.0369   -1.3057   -0.8297 H   0  0  0  0  0  0  0  0  0  0  0  0
    1.3528   -1.1549   -2.2256 H   0  0  0  0  0  0  0  0  0  0  0  0
    2.9746   -1.1586   -2.9245 H   0  0  0  0  0  0  0  0  0  0  0  0
    1.4824    1.1359   -2.1616 H   0  0  0  0  0  0  0  0  0  0  0  0
    3.1956    1.1331   -2.5775 H   0  0  0  0  0  0  0  0  0  0  0  0
    2.1443    1.7875   -0.0342 H   0  0  0  0  0  0  0  0  0  0  0  0
    4.0718    2.9099    1.2892 H   0  0  0  0  0  0  0  0  0  0  0  0
    3.9041    3.5823   -0.3640 H   0  0  0  0  0  0  0  0  0  0  0  0
    6.3187    2.3977    0.1165 H   0  0  0  0  0  0  0  0  0  0  0  0
  1 26  1  0  0  0  0
  1 27  1  0  0  0  0
  1 28  1  0  0  0  0
  2  3  1  0  0  0  0
  2 18  1  0  0  0  0
  2 21  1  0  0  0  0
  2  1  1  6  0  0  0
  3  4  1  0  0  0  0
  3 29  1  0  0  0  0
  3 30  1  0  0  0  0
  4  6  1  0  0  0  0
  4  5  1  0  0  0  0
  4 31  1  1  0  0  0
  5 32  1  0  0  0  0
  6  7  1  0  0  0  0
  6 16  1  0  0  0  0
  6 33  1  1  0  0  0
  7  8  1  0  0  0  0
  7 18  1  0  0  0  0
  7 34  1  6  0  0  0
  8  9  1  0  0  0  0
  8 35  1  0  0  0  0
  8 36  1  0  0  0  0
  9 10  1  0  0  0  0
  9 37  1  0  0  0  0
  9 38  1  0  0  0  0
 10 11  2  0  0  0  0
 10 16  1  0  0  0  0
 11 12  1  0  0  0  0
 11 39  1  0  0  0  0
 12 14  1  0  0  0  0
 12 13  2  0  0  0  0
 14 15  1  0  0  0  0
 14 40  1  0  0  0  0
 14 41  1  0  0  0  0
 15 16  1  0  0  0  0
 15 42  1  0  0  0  0
 15 43  1  0  0  0  0
 16 17  1  1  0  0  0
 17 44  1  0  0  0  0
 17 45  1  0  0  0  0
 17 46  1  0  0  0  0
 18 19  1  0  0  0  0
 18 47  1  1  0  0  0
 19 20  1  0  0  0  0
 19 48  1  0  0  0  0
 19 49  1  0  0  0  0
 20 21  1  0  0  0  0
 20 50  1  0  0  0  0
 20 51  1  0  0  0  0
 21 22  1  0  0  0  0
 21 52  1  1  0  0  0
 22 23  2  0  0  0  0
 22 24  1  0  0  0  0
 24 25  1  0  0  0  0
 24 53  1  0  0  0  0
 24 54  1  0  0  0  0
 25 55  1  0  0  0  0
M  END
$$$$
