CHEBI:16986
 OpenBabel04242415393D

 38 38  0  0  0  0  0  0  0  0999 V2000
    4.1103    2.1665    2.9447 C   0  0  0  0  0  0  0  0  0  0  0  0
    4.2600    1.0208    1.9939 C   0  0  0  0  0  0  0  0  0  0  0  0
    3.2375    0.1532    1.8885 N   0  0  0  0  0  0  0  0  0  0  0  0
    3.3983   -0.8799    1.0406 C   0  0  0  0  0  0  0  0  0  0  0  0
    4.5416   -1.0954    0.3022 C   0  0  0  0  0  0  0  0  0  0  0  0
    4.6556   -2.2681   -0.6176 C   0  0  0  0  0  0  0  0  0  0  0  0
    6.0091   -2.9033   -0.6426 N   0  3  0  0  0  0  0  0  0  0  0  0
    6.4876   -3.3802    0.5340 C   0  0  0  0  0  0  0  0  0  0  0  0
    7.6735   -4.0838    0.6135 C   0  0  0  0  0  0  0  0  0  0  0  0
    8.3469   -4.3886   -0.5519 C   0  0  0  0  0  0  0  0  0  0  0  0
    7.8379   -3.9637   -1.7845 C   0  0  0  0  0  0  0  0  0  0  0  0
    8.4930   -4.5288   -3.0327 C   0  0  0  0  0  0  0  0  0  0  0  0
    7.8019   -5.8161   -3.4947 C   0  0  0  0  0  0  0  0  0  0  0  0
    6.5065   -5.5301   -4.0061 O   0  0  0  0  0  0  0  0  0  0  0  0
    6.6685   -3.1553   -1.8206 C   0  0  0  0  0  0  0  0  0  0  0  0
    6.1025   -2.6312   -3.1141 C   0  0  0  0  0  0  0  0  0  0  0  0
    5.4914   -0.1174    0.4638 C   0  0  0  0  0  0  0  0  0  0  0  0
    6.6591   -0.1530   -0.2222 O   0  0  0  0  0  0  0  0  0  0  0  0
    5.4024    0.9282    1.2912 N   0  0  0  0  0  0  0  0  0  0  0  0
    4.2106   -5.9465   -1.3271 Br  0  5  0  0  0  0  0  0  0  0  0  0
    3.2184    2.0451    3.5673 H   0  0  0  0  0  0  0  0  0  0  0  0
    4.0222    3.1034    2.3875 H   0  0  0  0  0  0  0  0  0  0  0  0
    4.9826    2.2242    3.6029 H   0  0  0  0  0  0  0  0  0  0  0  0
    2.5423   -1.5516    0.9838 H   0  0  0  0  0  0  0  0  0  0  0  0
    4.3387   -1.9618   -1.6145 H   0  0  0  0  0  0  0  0  0  0  0  0
    3.9703   -3.0543   -0.2856 H   0  0  0  0  0  0  0  0  0  0  0  0
    5.8888   -3.2076    1.4234 H   0  0  0  0  0  0  0  0  0  0  0  0
    8.0295   -4.4543    1.5701 H   0  0  0  0  0  0  0  0  0  0  0  0
    9.2355   -5.0159   -0.5032 H   0  0  0  0  0  0  0  0  0  0  0  0
    9.5463   -4.7493   -2.8167 H   0  0  0  0  0  0  0  0  0  0  0  0
    8.5120   -3.7845   -3.8335 H   0  0  0  0  0  0  0  0  0  0  0  0
    7.7234   -6.5545   -2.6887 H   0  0  0  0  0  0  0  0  0  0  0  0
    8.3798   -6.2684   -4.3069 H   0  0  0  0  0  0  0  0  0  0  0  0
    5.8518   -5.8254   -3.3260 H   0  0  0  0  0  0  0  0  0  0  0  0
    5.8909   -1.5608   -3.0239 H   0  0  0  0  0  0  0  0  0  0  0  0
    5.1835   -3.1642   -3.3741 H   0  0  0  0  0  0  0  0  0  0  0  0
    6.7875   -2.7182   -3.9584 H   0  0  0  0  0  0  0  0  0  0  0  0
    7.0902    0.6546    0.1228 H   0  0  0  0  0  0  0  0  0  0  0  0
  1  2  1  0  0  0  0
  1 21  1  0  0  0  0
  1 22  1  0  0  0  0
  1 23  1  0  0  0  0
  2  3  1  0  0  0  0
  2 19  2  0  0  0  0
  3  4  2  0  0  0  0
  4  5  1  0  0  0  0
  4 24  1  0  0  0  0
  5  6  1  0  0  0  0
  5 17  2  0  0  0  0
  6  7  1  0  0  0  0
  6 25  1  0  0  0  0
  6 26  1  0  0  0  0
  7  8  1  0  0  0  0
  7 15  2  0  0  0  0
  8  9  2  0  0  0  0
  8 27  1  0  0  0  0
  9 10  1  0  0  0  0
  9 28  1  0  0  0  0
 10 11  2  0  0  0  0
 10 29  1  0  0  0  0
 11 12  1  0  0  0  0
 11 15  1  0  0  0  0
 12 13  1  0  0  0  0
 12 30  1  0  0  0  0
 12 31  1  0  0  0  0
 13 14  1  0  0  0  0
 13 32  1  0  0  0  0
 13 33  1  0  0  0  0
 14 34  1  0  0  0  0
 15 16  1  0  0  0  0
 16 35  1  0  0  0  0
 16 36  1  0  0  0  0
 16 37  1  0  0  0  0
 17 18  1  0  0  0  0
 17 19  1  0  0  0  0
 18 38  1  0  0  0  0
M  CHG  2   7   1  20  -1
M  END
$$$$
