CHEBI:8452
 OpenBabel04242411143D

 27 29  0  0  0  0  0  0  0  0999 V2000
    1.0522   -0.0334    0.0654 N   0  0  0  0  0  0  0  0  0  0  0  0
    2.4425    0.0373   -0.0881 C   0  0  0  0  0  0  0  0  0  0  0  0
    3.0869    1.2721   -0.0682 C   0  0  0  0  0  0  0  0  0  0  0  0
    4.4797    1.3400   -0.0941 C   0  0  0  0  0  0  0  0  0  0  0  0
    5.2438    0.1625   -0.0958 C   0  0  0  0  0  0  0  0  0  0  0  0
    6.6422    0.1891   -0.1193 C   0  0  0  0  0  0  0  0  0  0  0  0
    7.3668   -1.0075   -0.1032 C   0  0  0  0  0  0  0  0  0  0  0  0
    8.7704   -1.0245   -0.1089 C   0  0  0  0  0  0  0  0  0  0  0  0
    9.4570   -2.2384   -0.0902 C   0  0  0  0  0  0  0  0  0  0  0  0
    8.7571   -3.4426   -0.1099 C   0  0  0  0  0  0  0  0  0  0  0  0
    9.4407   -4.6562    0.0365 N   0  0  0  0  0  0  0  0  0  0  0  0
    7.3596   -3.4059   -0.0428 C   0  0  0  0  0  0  0  0  0  0  0  0
    6.6450   -2.2135   -0.0626 C   0  0  0  0  0  0  0  0  0  0  0  0
    5.2999   -2.2472   -0.0375 N   0  0  0  0  0  0  0  0  0  0  0  0
    4.6098   -1.0920   -0.0555 C   0  0  0  0  0  0  0  0  0  0  0  0
    3.2202   -1.1248   -0.0285 C   0  0  0  0  0  0  0  0  0  0  0  0
    0.5543    0.7724   -0.2998 H   0  0  0  0  0  0  0  0  0  0  0  0
    0.6491   -0.9103   -0.2518 H   0  0  0  0  0  0  0  0  0  0  0  0
    2.5104    2.1926   -0.0317 H   0  0  0  0  0  0  0  0  0  0  0  0
    4.9622    2.3143   -0.0969 H   0  0  0  0  0  0  0  0  0  0  0  0
    7.1668    1.1410   -0.1438 H   0  0  0  0  0  0  0  0  0  0  0  0
    9.3363   -0.0963   -0.1121 H   0  0  0  0  0  0  0  0  0  0  0  0
   10.5433   -2.2342   -0.0595 H   0  0  0  0  0  0  0  0  0  0  0  0
   10.3859   -4.6457   -0.3337 H   0  0  0  0  0  0  0  0  0  0  0  0
    8.9129   -5.4644   -0.2802 H   0  0  0  0  0  0  0  0  0  0  0  0
    6.7979   -4.3344    0.0223 H   0  0  0  0  0  0  0  0  0  0  0  0
    2.7356   -2.0957    0.0363 H   0  0  0  0  0  0  0  0  0  0  0  0
  1  2  1  0  0  0  0
  1 17  1  0  0  0  0
  1 18  1  0  0  0  0
  2  3  1  0  0  0  0
  2 16  2  0  0  0  0
  3  4  2  0  0  0  0
  3 19  1  0  0  0  0
  4  5  1  0  0  0  0
  4 20  1  0  0  0  0
  5  6  1  0  0  0  0
  5 15  2  0  0  0  0
  6  7  2  0  0  0  0
  6 21  1  0  0  0  0
  7  8  1  0  0  0  0
  7 13  1  0  0  0  0
  8  9  2  0  0  0  0
  8 22  1  0  0  0  0
  9 10  1  0  0  0  0
  9 23  1  0  0  0  0
 10 11  1  0  0  0  0
 10 12  2  0  0  0  0
 11 24  1  0  0  0  0
 11 25  1  0  0  0  0
 12 13  1  0  0  0  0
 12 26  1  0  0  0  0
 13 14  2  0  0  0  0
 14 15  1  0  0  0  0
 15 16  1  0  0  0  0
 16 27  1  0  0  0  0
M  END
$$$$
