CHEBI:16830
 OpenBabel04242415213D

  7  6  0  0  0  0  0  0  0  0999 V2000
    0.9560   -0.0570   -0.0572 C   0  0  0  0  0  0  0  0  0  0  0  0
    2.4079   -0.0682   -0.0672 N   0  0  0  0  0  0  0  0  0  0  0  0
    0.5817    0.7132    0.6231 H   0  0  0  0  0  0  0  0  0  0  0  0
    0.5731   -1.0283    0.2678 H   0  0  0  0  0  0  0  0  0  0  0  0
    0.5731    0.1456   -1.0613 H   0  0  0  0  0  0  0  0  0  0  0  0
    2.7520   -0.2280    0.8788 H   0  0  0  0  0  0  0  0  0  0  0  0
    2.7520    0.8508   -0.3425 H   0  0  0  0  0  0  0  0  0  0  0  0
  1  2  1  0  0  0  0
  1  3  1  0  0  0  0
  1  4  1  0  0  0  0
  1  5  1  0  0  0  0
  2  6  1  0  0  0  0
  2  7  1  0  0  0  0
M  END
$$$$
