CHEBI:15520
 OpenBabel04242412323D

 98101  0  0  1  0  0  0  0  0999 V2000
   11.2784   -7.9214   -2.8392 C   0  0  0  0  0  0  0  0  0  0  0  0
    9.9862   -7.3788   -2.1995 C   0  0  0  0  0  0  0  0  0  0  0  0
    9.1643   -6.6910   -3.3143 C   0  0  0  0  0  0  0  0  0  0  0  0
    9.1520   -8.5389   -1.6103 C   0  0  0  0  0  0  0  0  0  0  0  0
    8.9105   -9.5617   -2.5694 O   0  0  0  0  0  0  0  0  0  0  0  0
    7.8598  -10.7011   -2.1505 P   0  0  0  0  0  0  0  0  0  0  0  0
    7.2779  -10.5899   -0.7792 O   0  0  0  0  0  0  0  0  0  0  0  0
    6.7081  -10.5197   -3.2544 O   0  0  0  0  0  0  0  0  0  0  0  0
    8.4930  -12.0981   -2.5493 O   0  0  0  0  0  0  0  0  0  0  0  0
    9.7568  -12.7431   -1.8451 P   0  0  0  0  0  0  0  0  0  0  0  0
   11.0962  -12.1495   -2.1224 O   0  0  0  0  0  0  0  0  0  0  0  0
    9.3924  -12.7437   -0.2884 O   0  0  0  0  0  0  0  0  0  0  0  0
    9.6220  -14.3107   -2.1619 O   0  0  0  0  0  0  0  0  0  0  0  0
   10.5422  -14.9091   -3.0669 C   0  0  0  0  0  0  0  0  0  0  0  0
   10.0712  -16.3351   -3.3476 C   0  0  1  0  0  0  0  0  0  0  0  0
    8.8857  -16.3059   -4.1595 O   0  0  0  0  0  0  0  0  0  0  0  0
    8.7794  -17.6037   -4.7891 C   0  0  1  0  0  0  0  0  0  0  0  0
    8.2860  -17.4367   -6.1416 N   0  0  0  0  0  0  0  0  0  0  0  0
    7.9384  -16.2654   -6.7623 C   0  0  0  0  0  0  0  0  0  0  0  0
    7.3315  -16.4753   -7.9127 N   0  0  0  0  0  0  0  0  0  0  0  0
    7.2788  -17.8478   -8.0378 C   0  0  0  0  0  0  0  0  0  0  0  0
    6.7053  -18.6934   -9.0023 C   0  0  0  0  0  0  0  0  0  0  0  0
    6.0009  -18.2236  -10.1058 N   0  0  0  0  0  0  0  0  0  0  0  0
    6.7993  -20.0312   -8.8261 N   0  0  0  0  0  0  0  0  0  0  0  0
    7.4522  -20.4901   -7.7362 C   0  0  0  0  0  0  0  0  0  0  0  0
    8.0248  -19.7808   -6.7421 N   0  0  0  0  0  0  0  0  0  0  0  0
    7.8906  -18.4627   -6.9580 C   0  0  0  0  0  0  0  0  0  0  0  0
   10.1539  -18.2905   -4.6649 C   0  0  2  0  0  0  0  0  0  0  0  0
   10.0640  -19.3611   -3.7129 O   0  0  0  0  0  0  0  0  0  0  0  0
   11.0634  -17.1800   -4.1362 C   0  0  2  0  0  0  0  0  0  0  0  0
   12.1241  -17.5927   -3.2925 O   0  0  0  0  0  0  0  0  0  0  0  0
   13.2875  -18.5463   -3.8197 P   0  0  0  0  0  0  0  0  0  0  0  0
   14.4299  -18.7626   -2.8916 O   0  0  0  0  0  0  0  0  0  0  0  0
   12.5926  -19.9176   -4.2531 O   0  0  0  0  0  0  0  0  0  0  0  0
   13.7504  -17.9259   -5.2110 O   0  0  0  0  0  0  0  0  0  0  0  0
   10.3196   -6.3242   -1.1048 C   0  0  1  0  0  0  0  0  0  0  0  0
    9.1049   -5.8242   -0.5248 O   0  0  0  0  0  0  0  0  0  0  0  0
   11.2345   -6.8700    0.0137 C   0  0  0  0  0  0  0  0  0  0  0  0
   12.4567   -6.8986   -0.0813 O   0  0  0  0  0  0  0  0  0  0  0  0
   10.5435   -7.3517    1.1043 N   0  0  0  0  0  0  0  0  0  0  0  0
   11.2002   -7.9614    2.2447 C   0  0  0  0  0  0  0  0  0  0  0  0
   11.5466   -9.4227    1.9883 C   0  0  0  0  0  0  0  0  0  0  0  0
   12.0865  -10.0777    3.2403 C   0  0  0  0  0  0  0  0  0  0  0  0
   12.2333   -9.4910    4.3066 O   0  0  0  0  0  0  0  0  0  0  0  0
   12.3672  -11.4179    3.0727 N   0  0  0  0  0  0  0  0  0  0  0  0
   12.9329  -12.2114    4.1517 C   0  0  0  0  0  0  0  0  0  0  0  0
   14.4608  -12.1632    4.1974 C   0  0  0  0  0  0  0  0  0  0  0  0
   15.1653  -12.9562    2.7120 S   0  0  0  0  0  0  0  0  0  0  0  0
   16.8654  -12.9532    3.1742 C   0  0  0  0  0  0  0  0  0  0  0  0
   17.2723  -12.2514    4.0954 O   0  0  0  0  0  0  0  0  0  0  0  0
   17.7958  -13.8222    2.3643 C   0  0  0  0  0  0  0  0  0  0  0  0
   17.3847  -14.9071    1.6738 C   0  0  0  0  0  0  0  0  0  0  0  0
   18.3295  -15.7810    0.8923 C   0  0  0  0  0  0  0  0  0  0  0  0
   19.6752  -15.1198    0.5587 C   0  0  0  0  0  0  0  0  0  0  0  0
   20.0992  -14.0917    1.5654 C   0  0  0  0  0  0  0  0  0  0  0  0
   19.2213  -13.5104    2.3969 C   0  0  0  0  0  0  0  0  0  0  0  0
   11.0625   -8.5498   -3.7105 H   0  0  0  0  0  0  0  0  0  0  0  0
   11.8507   -8.5322   -2.1334 H   0  0  0  0  0  0  0  0  0  0  0  0
   11.9225   -7.1021   -3.1783 H   0  0  0  0  0  0  0  0  0  0  0  0
    8.9420   -7.3813   -4.1355 H   0  0  0  0  0  0  0  0  0  0  0  0
    9.7128   -5.8415   -3.7380 H   0  0  0  0  0  0  0  0  0  0  0  0
    8.2085   -6.3124   -2.9356 H   0  0  0  0  0  0  0  0  0  0  0  0
    8.1902   -8.1621   -1.2430 H   0  0  0  0  0  0  0  0  0  0  0  0
    9.6768   -9.0106   -0.7747 H   0  0  0  0  0  0  0  0  0  0  0  0
    5.8471  -10.7932   -2.8886 H   0  0  0  0  0  0  0  0  0  0  0  0
   10.0917  -13.1579    0.2458 H   0  0  0  0  0  0  0  0  0  0  0  0
   11.5314  -14.9125   -2.5985 H   0  0  0  0  0  0  0  0  0  0  0  0
   10.5716  -14.3176   -3.9881 H   0  0  0  0  0  0  0  0  0  0  0  0
    9.8117  -16.8185   -2.3957 H   0  0  0  0  0  0  0  0  0  0  0  0
    8.0052  -18.1608   -4.2469 H   0  0  0  0  0  0  0  0  0  0  0  0
    8.1206  -15.2921   -6.3225 H   0  0  0  0  0  0  0  0  0  0  0  0
    5.6583  -17.2772   -9.9759 H   0  0  0  0  0  0  0  0  0  0  0  0
    5.3373  -18.9112  -10.4391 H   0  0  0  0  0  0  0  0  0  0  0  0
    7.5177  -21.5710   -7.6473 H   0  0  0  0  0  0  0  0  0  0  0  0
   10.5173  -18.7125   -5.6076 H   0  0  0  0  0  0  0  0  0  0  0  0
   10.8873  -19.8838   -3.8226 H   0  0  0  0  0  0  0  0  0  0  0  0
   11.4585  -16.5959   -4.9764 H   0  0  0  0  0  0  0  0  0  0  0  0
   13.2566  -20.6353   -4.2802 H   0  0  0  0  0  0  0  0  0  0  0  0
   14.6316  -17.5127   -5.1224 H   0  0  0  0  0  0  0  0  0  0  0  0
   10.8343   -5.4641   -1.5516 H   0  0  0  0  0  0  0  0  0  0  0  0
    9.3544   -5.0409    0.0004 H   0  0  0  0  0  0  0  0  0  0  0  0
    9.5301   -7.2704    1.0920 H   0  0  0  0  0  0  0  0  0  0  0  0
   10.5141   -7.8645    3.0930 H   0  0  0  0  0  0  0  0  0  0  0  0
   12.1062   -7.3900    2.4772 H   0  0  0  0  0  0  0  0  0  0  0  0
   12.2939   -9.5071    1.1910 H   0  0  0  0  0  0  0  0  0  0  0  0
   10.6515   -9.9708    1.6693 H   0  0  0  0  0  0  0  0  0  0  0  0
   12.4679  -11.7716    2.1294 H   0  0  0  0  0  0  0  0  0  0  0  0
   12.5746  -13.2390    4.0222 H   0  0  0  0  0  0  0  0  0  0  0  0
   12.5336  -11.8449    5.1042 H   0  0  0  0  0  0  0  0  0  0  0  0
   14.8077  -12.7033    5.0846 H   0  0  0  0  0  0  0  0  0  0  0  0
   14.8135  -11.1283    4.2561 H   0  0  0  0  0  0  0  0  0  0  0  0
   16.3472  -15.2256    1.6691 H   0  0  0  0  0  0  0  0  0  0  0  0
   17.8474  -16.0949   -0.0409 H   0  0  0  0  0  0  0  0  0  0  0  0
   18.5047  -16.6936    1.4760 H   0  0  0  0  0  0  0  0  0  0  0  0
   19.6131  -14.6319   -0.4221 H   0  0  0  0  0  0  0  0  0  0  0  0
   20.4441  -15.8964    0.4762 H   0  0  0  0  0  0  0  0  0  0  0  0
   21.1481  -13.8111    1.5994 H   0  0  0  0  0  0  0  0  0  0  0  0
   19.5604  -12.7651    3.1138 H   0  0  0  0  0  0  0  0  0  0  0  0
  1  2  1  0  0  0  0
  1 57  1  0  0  0  0
  1 58  1  0  0  0  0
  1 59  1  0  0  0  0
  2  3  1  0  0  0  0
  2  4  1  0  0  0  0
  2 36  1  0  0  0  0
  3 60  1  0  0  0  0
  3 61  1  0  0  0  0
  3 62  1  0  0  0  0
  4  5  1  0  0  0  0
  4 63  1  0  0  0  0
  4 64  1  0  0  0  0
  5  6  1  0  0  0  0
  6  7  2  0  0  0  0
  6  8  1  0  0  0  0
  6  9  1  0  0  0  0
  8 65  1  0  0  0  0
  9 10  1  0  0  0  0
 10 11  2  0  0  0  0
 10 12  1  0  0  0  0
 10 13  1  0  0  0  0
 12 66  1  0  0  0  0
 13 14  1  0  0  0  0
 14 67  1  0  0  0  0
 14 68  1  0  0  0  0
 15 16  1  0  0  0  0
 15 30  1  0  0  0  0
 15 14  1  0  0  0  0
 15 69  1  1  0  0  0
 16 17  1  0  0  0  0
 17 28  1  0  0  0  0
 17 18  1  0  0  0  0
 17 70  1  1  0  0  0
 18 19  1  0  0  0  0
 18 27  1  0  0  0  0
 19 20  2  0  0  0  0
 19 71  1  0  0  0  0
 20 21  1  0  0  0  0
 21 22  1  0  0  0  0
 21 27  2  0  0  0  0
 22 23  1  0  0  0  0
 22 24  2  0  0  0  0
 23 72  1  0  0  0  0
 23 73  1  0  0  0  0
 24 25  1  0  0  0  0
 25 26  2  0  0  0  0
 25 74  1  0  0  0  0
 26 27  1  0  0  0  0
 28 29  1  0  0  0  0
 28 30  1  0  0  0  0
 28 75  1  6  0  0  0
 29 76  1  0  0  0  0
 30 31  1  0  0  0  0
 30 77  1  6  0  0  0
 31 32  1  0  0  0  0
 32 33  2  0  0  0  0
 32 34  1  0  0  0  0
 32 35  1  0  0  0  0
 34 78  1  0  0  0  0
 35 79  1  0  0  0  0
 36 37  1  0  0  0  0
 36 38  1  0  0  0  0
 36 80  1  6  0  0  0
 37 81  1  0  0  0  0
 38 39  2  0  0  0  0
 38 40  1  0  0  0  0
 40 41  1  0  0  0  0
 40 82  1  0  0  0  0
 41 42  1  0  0  0  0
 41 83  1  0  0  0  0
 41 84  1  0  0  0  0
 42 43  1  0  0  0  0
 42 85  1  0  0  0  0
 42 86  1  0  0  0  0
 43 44  2  0  0  0  0
 43 45  1  0  0  0  0
 45 46  1  0  0  0  0
 45 87  1  0  0  0  0
 46 47  1  0  0  0  0
 46 88  1  0  0  0  0
 46 89  1  0  0  0  0
 47 48  1  0  0  0  0
 47 90  1  0  0  0  0
 47 91  1  0  0  0  0
 48 49  1  0  0  0  0
 49 50  2  0  0  0  0
 49 51  1  0  0  0  0
 51 52  2  0  0  0  0
 51 56  1  0  0  0  0
 52 53  1  0  0  0  0
 52 92  1  0  0  0  0
 53 54  1  0  0  0  0
 53 93  1  0  0  0  0
 53 94  1  0  0  0  0
 54 55  1  0  0  0  0
 54 95  1  0  0  0  0
 54 96  1  0  0  0  0
 55 56  2  0  0  0  0
 55 97  1  0  0  0  0
 56 98  1  0  0  0  0
M  END
$$$$
