CHEBI:15466
 OpenBabel04242412003D

 95 97  0  0  1  0  0  0  0  0999 V2000
   17.4254   -2.4047   28.1346 C   0  0  0  0  0  0  0  0  0  0  0  0
   18.5348   -2.3141   29.1807 C   0  0  1  0  0  0  0  0  0  0  0  0
   18.0971   -2.9940   30.4511 C   0  0  0  0  0  0  0  0  0  0  0  0
   17.9009   -4.1931   30.5654 O   0  0  0  0  0  0  0  0  0  0  0  0
   17.9024   -2.1467   31.4889 O   0  0  0  0  0  0  0  0  0  0  0  0
   19.8020   -2.9334   28.6406 C   0  0  0  0  0  0  0  0  0  0  0  0
   19.8446   -3.9207   27.9195 O   0  0  0  0  0  0  0  0  0  0  0  0
   21.2789   -2.0474   29.0379 S   0  0  0  0  0  0  0  0  0  0  0  0
   22.3653   -2.6820   27.7184 C   0  0  0  0  0  0  0  0  0  0  0  0
   22.9883   -4.0288   28.0799 C   0  0  0  0  0  0  0  0  0  0  0  0
   23.7875   -4.5572   26.9851 N   0  0  0  0  0  0  0  0  0  0  0  0
   24.8231   -5.4420   27.2328 C   0  0  0  0  0  0  0  0  0  0  0  0
   25.2594   -5.6821   28.3530 O   0  0  0  0  0  0  0  0  0  0  0  0
   25.4059   -6.0239   25.9639 C   0  0  0  0  0  0  0  0  0  0  0  0
   26.4001   -7.1368   26.2715 C   0  0  0  0  0  0  0  0  0  0  0  0
   27.0388   -7.6524   25.0716 N   0  0  0  0  0  0  0  0  0  0  0  0
   26.3398   -8.4187   24.1617 C   0  0  0  0  0  0  0  0  0  0  0  0
   25.1334   -8.6252   24.2453 O   0  0  0  0  0  0  0  0  0  0  0  0
   27.2171   -8.9719   23.0122 C   0  0  2  0  0  0  0  0  0  0  0  0
   28.5734   -8.5224   23.1458 O   0  0  0  0  0  0  0  0  0  0  0  0
   26.6502   -8.6587   21.5917 C   0  0  0  0  0  0  0  0  0  0  0  0
   26.5760   -7.1380   21.3358 C   0  0  0  0  0  0  0  0  0  0  0  0
   27.5975   -9.2629   20.5281 C   0  0  0  0  0  0  0  0  0  0  0  0
   25.2342   -9.2728   21.4313 C   0  0  0  0  0  0  0  0  0  0  0  0
   24.7847   -9.1736   20.0887 O   0  0  0  0  0  0  0  0  0  0  0  0
   23.3129   -9.7014   19.7164 P   0  0  0  0  0  0  0  0  0  0  0  0
   23.0160   -9.7014   18.2565 O   0  0  0  0  0  0  0  0  0  0  0  0
   23.3240  -11.1949   20.2995 O   0  0  0  0  0  0  0  0  0  0  0  0
   22.3031   -8.9186   20.6626 O   0  0  0  0  0  0  0  0  0  0  0  0
   20.7249   -9.0095   20.4989 P   0  0  0  0  0  0  0  0  0  0  0  0
   20.1797   -8.7025   19.1456 O   0  0  0  0  0  0  0  0  0  0  0  0
   20.3570  -10.4937   20.9733 O   0  0  0  0  0  0  0  0  0  0  0  0
   20.1000   -8.0732   21.6520 O   0  0  0  0  0  0  0  0  0  0  0  0
   20.1431   -8.5269   22.9889 C   0  0  0  0  0  0  0  0  0  0  0  0
   19.4188   -7.5679   23.9346 C   0  0  1  0  0  0  0  0  0  0  0  0
   19.4438   -8.1566   25.2485 O   0  0  0  0  0  0  0  0  0  0  0  0
   19.6519   -7.1173   26.2298 C   0  0  1  0  0  0  0  0  0  0  0  0
   20.8387   -7.4649   26.9856 N   0  0  0  0  0  0  0  0  0  0  0  0
   22.0621   -7.8250   26.4846 C   0  0  0  0  0  0  0  0  0  0  0  0
   22.9344   -8.0752   27.4367 N   0  0  0  0  0  0  0  0  0  0  0  0
   22.2165   -7.9556   28.6084 C   0  0  0  0  0  0  0  0  0  0  0  0
   22.5623   -8.1427   29.9566 C   0  0  0  0  0  0  0  0  0  0  0  0
   23.8390   -8.5178   30.3683 N   0  0  0  0  0  0  0  0  0  0  0  0
   21.6195   -7.9256   30.9026 N   0  0  0  0  0  0  0  0  0  0  0  0
   20.3834   -7.5524   30.5008 C   0  0  0  0  0  0  0  0  0  0  0  0
   19.9410   -7.3462   29.2452 N   0  0  0  0  0  0  0  0  0  0  0  0
   20.9130   -7.5668   28.3482 C   0  0  0  0  0  0  0  0  0  0  0  0
   19.7347   -5.7775   25.4806 C   0  0  2  0  0  0  0  0  0  0  0  0
   18.4617   -5.1333   25.5331 O   0  0  0  0  0  0  0  0  0  0  0  0
   20.0904   -6.2036   24.0615 C   0  0  2  0  0  0  0  0  0  0  0  0
   19.8578   -5.2647   23.0300 O   0  0  0  0  0  0  0  0  0  0  0  0
   18.4170   -4.6730   22.6805 P   0  0  0  0  0  0  0  0  0  0  0  0
   17.2509   -5.5907   22.6280 O   0  0  0  0  0  0  0  0  0  0  0  0
   18.2314   -3.4246   23.6692 O   0  0  0  0  0  0  0  0  0  0  0  0
   18.6601   -3.9134   21.2982 O   0  0  0  0  0  0  0  0  0  0  0  0
   16.5278   -1.8760   28.4721 H   0  0  0  0  0  0  0  0  0  0  0  0
   17.1413   -3.4439   27.9327 H   0  0  0  0  0  0  0  0  0  0  0  0
   17.7480   -1.9604   27.1860 H   0  0  0  0  0  0  0  0  0  0  0  0
   18.7109   -1.2488   29.3695 H   0  0  0  0  0  0  0  0  0  0  0  0
   18.0923   -1.2044   31.3237 H   0  0  0  0  0  0  0  0  0  0  0  0
   23.1604   -1.9455   27.5579 H   0  0  0  0  0  0  0  0  0  0  0  0
   21.8111   -2.7427   26.7741 H   0  0  0  0  0  0  0  0  0  0  0  0
   22.2255   -4.7822   28.2950 H   0  0  0  0  0  0  0  0  0  0  0  0
   23.6189   -3.9301   28.9701 H   0  0  0  0  0  0  0  0  0  0  0  0
   23.3598   -4.6037   26.0697 H   0  0  0  0  0  0  0  0  0  0  0  0
   25.9016   -5.2172   25.4107 H   0  0  0  0  0  0  0  0  0  0  0  0
   24.5882   -6.3962   25.3373 H   0  0  0  0  0  0  0  0  0  0  0  0
   25.9061   -7.9698   26.7848 H   0  0  0  0  0  0  0  0  0  0  0  0
   27.2016   -6.7684   26.9207 H   0  0  0  0  0  0  0  0  0  0  0  0
   28.0421   -7.8164   25.0928 H   0  0  0  0  0  0  0  0  0  0  0  0
   27.2508  -10.0589   23.1587 H   0  0  0  0  0  0  0  0  0  0  0  0
   28.5894   -7.5697   22.9502 H   0  0  0  0  0  0  0  0  0  0  0  0
   27.5657   -6.6704   21.3651 H   0  0  0  0  0  0  0  0  0  0  0  0
   25.9471   -6.6380   22.0798 H   0  0  0  0  0  0  0  0  0  0  0  0
   26.1511   -6.9210   20.3493 H   0  0  0  0  0  0  0  0  0  0  0  0
   28.6110   -8.8544   20.6101 H   0  0  0  0  0  0  0  0  0  0  0  0
   27.2524   -9.0508   19.5099 H   0  0  0  0  0  0  0  0  0  0  0  0
   27.6659  -10.3510   20.6375 H   0  0  0  0  0  0  0  0  0  0  0  0
   24.5030   -8.7503   22.0506 H   0  0  0  0  0  0  0  0  0  0  0  0
   25.2519  -10.3289   21.7215 H   0  0  0  0  0  0  0  0  0  0  0  0
   23.7240  -11.8071   19.6531 H   0  0  0  0  0  0  0  0  0  0  0  0
   20.2140  -11.0892   20.2142 H   0  0  0  0  0  0  0  0  0  0  0  0
   21.1855   -8.6641   23.2978 H   0  0  0  0  0  0  0  0  0  0  0  0
   19.6580   -9.5061   23.0667 H   0  0  0  0  0  0  0  0  0  0  0  0
   18.3750   -7.4760   23.6267 H   0  0  0  0  0  0  0  0  0  0  0  0
   18.7946   -7.1377   26.9115 H   0  0  0  0  0  0  0  0  0  0  0  0
   22.2747   -7.8982   25.4266 H   0  0  0  0  0  0  0  0  0  0  0  0
   24.5456   -8.2275   29.6977 H   0  0  0  0  0  0  0  0  0  0  0  0
   23.9974   -8.2470   31.3299 H   0  0  0  0  0  0  0  0  0  0  0  0
   19.6539   -7.3981   31.2913 H   0  0  0  0  0  0  0  0  0  0  0  0
   20.4797   -5.0906   25.8920 H   0  0  0  0  0  0  0  0  0  0  0  0
   18.5993   -4.2007   25.2652 H   0  0  0  0  0  0  0  0  0  0  0  0
   21.1756   -6.3636   24.0491 H   0  0  0  0  0  0  0  0  0  0  0  0
   17.3347   -3.0569   23.5455 H   0  0  0  0  0  0  0  0  0  0  0  0
   18.5478   -4.5223   20.5438 H   0  0  0  0  0  0  0  0  0  0  0  0
  1  2  1  0  0  0  0
  1 56  1  0  0  0  0
  1 57  1  0  0  0  0
  1 58  1  0  0  0  0
  2  3  1  0  0  0  0
  2  6  1  0  0  0  0
  2 59  1  1  0  0  0
  3  4  2  0  0  0  0
  3  5  1  0  0  0  0
  5 60  1  0  0  0  0
  6  7  2  0  0  0  0
  6  8  1  0  0  0  0
  8  9  1  0  0  0  0
  9 10  1  0  0  0  0
  9 61  1  0  0  0  0
  9 62  1  0  0  0  0
 10 11  1  0  0  0  0
 10 63  1  0  0  0  0
 10 64  1  0  0  0  0
 11 12  1  0  0  0  0
 11 65  1  0  0  0  0
 12 13  2  0  0  0  0
 12 14  1  0  0  0  0
 14 15  1  0  0  0  0
 14 66  1  0  0  0  0
 14 67  1  0  0  0  0
 15 16  1  0  0  0  0
 15 68  1  0  0  0  0
 15 69  1  0  0  0  0
 16 17  1  0  0  0  0
 16 70  1  0  0  0  0
 17 18  2  0  0  0  0
 19 21  1  0  0  0  0
 19 20  1  0  0  0  0
 19 17  1  0  0  0  0
 19 71  1  1  0  0  0
 20 72  1  0  0  0  0
 21 22  1  0  0  0  0
 21 23  1  0  0  0  0
 21 24  1  0  0  0  0
 22 73  1  0  0  0  0
 22 74  1  0  0  0  0
 22 75  1  0  0  0  0
 23 76  1  0  0  0  0
 23 77  1  0  0  0  0
 23 78  1  0  0  0  0
 24 25  1  0  0  0  0
 24 79  1  0  0  0  0
 24 80  1  0  0  0  0
 25 26  1  0  0  0  0
 26 27  2  0  0  0  0
 26 28  1  0  0  0  0
 26 29  1  0  0  0  0
 28 81  1  0  0  0  0
 29 30  1  0  0  0  0
 30 31  2  0  0  0  0
 30 32  1  0  0  0  0
 30 33  1  0  0  0  0
 32 82  1  0  0  0  0
 33 34  1  0  0  0  0
 34 83  1  0  0  0  0
 34 84  1  0  0  0  0
 35 36  1  0  0  0  0
 35 50  1  0  0  0  0
 35 34  1  0  0  0  0
 35 85  1  6  0  0  0
 36 37  1  0  0  0  0
 37 48  1  0  0  0  0
 37 38  1  0  0  0  0
 37 86  1  1  0  0  0
 38 39  1  0  0  0  0
 38 47  1  0  0  0  0
 39 40  2  0  0  0  0
 39 87  1  0  0  0  0
 40 41  1  0  0  0  0
 41 42  1  0  0  0  0
 41 47  2  0  0  0  0
 42 43  1  0  0  0  0
 42 44  2  0  0  0  0
 43 88  1  0  0  0  0
 43 89  1  0  0  0  0
 44 45  1  0  0  0  0
 45 46  2  0  0  0  0
 45 90  1  0  0  0  0
 46 47  1  0  0  0  0
 48 49  1  0  0  0  0
 48 50  1  0  0  0  0
 48 91  1  1  0  0  0
 49 92  1  0  0  0  0
 50 51  1  0  0  0  0
 50 93  1  1  0  0  0
 51 52  1  0  0  0  0
 52 53  2  0  0  0  0
 52 54  1  0  0  0  0
 52 55  1  0  0  0  0
 54 94  1  0  0  0  0
 55 95  1  0  0  0  0
M  END
$$$$
