CHEBI:15588
 OpenBabel04242412513D

 13 12  0  0  1  0  0  0  0  0999 V2000
    4.5388    3.1133    0.3692 O   0  0  0  0  0  0  0  0  0  0  0  0
    5.3661    2.3827   -0.2452 C   0  0  0  0  0  0  0  0  0  0  0  0
    5.4343    2.1785   -1.4998 O   0  5  0  0  0  0  0  0  0  0  0  0
    6.4598    1.6859    0.5661 C   0  0  0  0  0  0  0  0  0  0  0  0
    6.2237    1.5078    2.0598 C   0  0  1  0  0  0  0  0  0  0  0  0
    5.5931    0.2088    2.2936 O   0  0  0  0  0  0  0  0  0  0  0  0
    7.5706    1.5329    2.8704 C   0  0  0  0  0  0  0  0  0  0  0  0
    7.8110    0.4317    3.4758 O   0  0  0  0  0  0  0  0  0  0  0  0
    8.2420    2.6013    2.8844 O   0  5  0  0  0  0  0  0  0  0  0  0
    7.3634    2.2850    0.3958 H   0  0  0  0  0  0  0  0  0  0  0  0
    6.6370    0.7045    0.1068 H   0  0  0  0  0  0  0  0  0  0  0  0
    5.5611    2.2674    2.4850 H   0  0  0  0  0  0  0  0  0  0  0  0
    6.2702   -0.2289    2.8648 H   0  0  0  0  0  0  0  0  0  0  0  0
  1  2  2  0  0  0  0
  2  3  1  0  0  0  0
  2  4  1  0  0  0  0
  4  5  1  0  0  0  0
  4 10  1  0  0  0  0
  4 11  1  0  0  0  0
  5  6  1  0  0  0  0
  5  7  1  0  0  0  0
  5 12  1  1  0  0  0
  6 13  1  0  0  0  0
  7  8  2  0  0  0  0
  7  9  1  0  0  0  0
M  CHG  2   3  -1   9  -1
M  END
$$$$
