CHEBI:18388
 OpenBabel04252409313D

 30 32  0  0  0  0  0  0  0  0999 V2000
   -2.3692    1.7084   -0.0914 O   0  0  0  0  0  0  0  0  0  0  0  0
   -1.8674    0.5928   -0.0772 C   0  0  0  0  0  0  0  0  0  0  0  0
   -2.7544   -0.5843   -0.1131 C   0  0  0  0  0  0  0  0  0  0  0  0
   -2.2327   -1.8172   -0.0729 C   0  0  0  0  0  0  0  0  0  0  0  0
   -3.0788   -3.0297   -0.1124 C   0  0  0  0  0  0  0  0  0  0  0  0
   -2.6361   -4.1727   -0.8001 C   0  0  0  0  0  0  0  0  0  0  0  0
   -3.4121   -5.3357   -0.8424 C   0  0  0  0  0  0  0  0  0  0  0  0
   -4.6383   -5.3618   -0.1899 C   0  0  0  0  0  0  0  0  0  0  0  0
   -5.4289   -6.4716   -0.2041 O   0  0  0  0  0  0  0  0  0  0  0  0
   -5.0954   -4.2499    0.5042 C   0  0  0  0  0  0  0  0  0  0  0  0
   -4.3172   -3.0894    0.5473 C   0  0  0  0  0  0  0  0  0  0  0  0
   -0.8741   -2.0752   -0.0169 O   0  0  0  0  0  0  0  0  0  0  0  0
   -0.0018   -1.0143   -0.0012 C   0  0  0  0  0  0  0  0  0  0  0  0
    1.3557   -1.3463    0.0410 C   0  0  0  0  0  0  0  0  0  0  0  0
    2.3025   -0.3302    0.0565 C   0  0  0  0  0  0  0  0  0  0  0  0
    3.6378   -0.6017    0.0940 O   0  0  0  0  0  0  0  0  0  0  0  0
    1.9164    1.0053    0.0333 C   0  0  0  0  0  0  0  0  0  0  0  0
    0.5586    1.3324   -0.0078 C   0  0  0  0  0  0  0  0  0  0  0  0
    0.2026    2.6502   -0.0312 O   0  0  0  0  0  0  0  0  0  0  0  0
   -0.4125    0.3221   -0.0268 C   0  0  0  0  0  0  0  0  0  0  0  0
   -3.8144   -0.3759   -0.1807 H   0  0  0  0  0  0  0  0  0  0  0  0
   -1.6797   -4.1649   -1.3192 H   0  0  0  0  0  0  0  0  0  0  0  0
   -3.0433   -6.2003   -1.3849 H   0  0  0  0  0  0  0  0  0  0  0  0
   -4.9880   -7.1620   -0.7256 H   0  0  0  0  0  0  0  0  0  0  0  0
   -6.0535   -4.2848    1.0156 H   0  0  0  0  0  0  0  0  0  0  0  0
   -4.6910   -2.2399    1.1144 H   0  0  0  0  0  0  0  0  0  0  0  0
    1.6496   -2.3910    0.0603 H   0  0  0  0  0  0  0  0  0  0  0  0
    3.7681   -1.5649    0.1102 H   0  0  0  0  0  0  0  0  0  0  0  0
    2.6822    1.7752    0.0464 H   0  0  0  0  0  0  0  0  0  0  0  0
    0.9920    3.2138   -0.0034 H   0  0  0  0  0  0  0  0  0  0  0  0
  1  2  2  0  0  0  0
  2  3  1  0  0  0  0
  2 20  1  0  0  0  0
  3  4  2  0  0  0  0
  3 21  1  0  0  0  0
  4  5  1  0  0  0  0
  4 12  1  0  0  0  0
  5  6  1  0  0  0  0
  5 11  2  0  0  0  0
  6  7  2  0  0  0  0
  6 22  1  0  0  0  0
  7  8  1  0  0  0  0
  7 23  1  0  0  0  0
  8  9  1  0  0  0  0
  8 10  2  0  0  0  0
  9 24  1  0  0  0  0
 10 11  1  0  0  0  0
 10 25  1  0  0  0  0
 11 26  1  0  0  0  0
 12 13  1  0  0  0  0
 13 14  1  0  0  0  0
 13 20  2  0  0  0  0
 14 15  2  0  0  0  0
 14 27  1  0  0  0  0
 15 16  1  0  0  0  0
 15 17  1  0  0  0  0
 16 28  1  0  0  0  0
 17 18  2  0  0  0  0
 17 29  1  0  0  0  0
 18 19  1  0  0  0  0
 18 20  1  0  0  0  0
 19 30  1  0  0  0  0
M  END
$$$$
