CHEBI:27371
 OpenBabel04252409413D

 23 23  0  0  1  0  0  0  0  0999 V2000
    0.9223    0.1799   -0.0368 O   0  0  0  0  0  0  0  0  0  0  0  0
    2.3549    0.0483   -0.0445 C   0  0  0  0  0  0  0  0  0  0  0  0
    2.7176   -1.4080   -0.3590 C   0  0  1  0  0  0  0  0  0  0  0  0
    2.0153   -2.2624    0.5616 O   0  0  0  0  0  0  0  0  0  0  0  0
    2.3202   -1.7997   -1.7916 C   0  0  2  0  0  0  0  0  0  0  0  0
    2.7879   -3.1323   -2.0433 O   0  0  0  0  0  0  0  0  0  0  0  0
    2.8744   -0.8310   -2.8338 C   0  0  0  0  0  0  0  0  0  0  0  0
    2.5238    0.6242   -2.5100 C   0  0  1  0  0  0  0  0  0  0  0  0
    1.1267    0.8347   -2.7080 O   0  0  0  0  0  0  0  0  0  0  0  0
    2.9563    1.0109   -1.0800 C   0  0  2  0  0  0  0  0  0  0  0  0
    4.3812    0.9902   -0.9776 O   0  0  0  0  0  0  0  0  0  0  0  0
    0.6184   -0.5446    0.5524 H   0  0  0  0  0  0  0  0  0  0  0  0
    2.7072    0.3004    0.9625 H   0  0  0  0  0  0  0  0  0  0  0  0
    3.7886   -1.5822   -0.2021 H   0  0  0  0  0  0  0  0  0  0  0  0
    2.0830   -3.1622    0.1815 H   0  0  0  0  0  0  0  0  0  0  0  0
    1.2278   -1.8489   -1.8705 H   0  0  0  0  0  0  0  0  0  0  0  0
    3.7497   -3.0941   -2.1904 H   0  0  0  0  0  0  0  0  0  0  0  0
    2.4767   -1.1082   -3.8179 H   0  0  0  0  0  0  0  0  0  0  0  0
    3.9637   -0.9458   -2.9019 H   0  0  0  0  0  0  0  0  0  0  0  0
    3.0462    1.2641   -3.2304 H   0  0  0  0  0  0  0  0  0  0  0  0
    0.6695    0.6675   -1.8545 H   0  0  0  0  0  0  0  0  0  0  0  0
    2.6041    2.0260   -0.8592 H   0  0  0  0  0  0  0  0  0  0  0  0
    4.7151    1.7539   -1.4833 H   0  0  0  0  0  0  0  0  0  0  0  0
  1  2  1  0  0  0  0
  1 12  1  0  0  0  0
  2  3  1  0  0  0  0
  2 10  1  0  0  0  0
  2 13  1  0  0  0  0
  3  4  1  0  0  0  0
  3  5  1  0  0  0  0
  3 14  1  1  0  0  0
  4 15  1  0  0  0  0
  5  6  1  0  0  0  0
  5  7  1  0  0  0  0
  5 16  1  6  0  0  0
  6 17  1  0  0  0  0
  7  8  1  0  0  0  0
  7 18  1  0  0  0  0
  7 19  1  0  0  0  0
  8 10  1  0  0  0  0
  8  9  1  0  0  0  0
  8 20  1  6  0  0  0
  9 21  1  0  0  0  0
 10 11  1  0  0  0  0
 10 22  1  1  0  0  0
 11 23  1  0  0  0  0
M  END
$$$$
