CHEBI:15768
 OpenBabel04242413143D

 24 24  0  0  1  0  0  0  0  0999 V2000
    0.8265   -0.3075   -2.1445 N   0  0  0  0  0  0  0  0  0  0  0  0
    1.8359    0.2548   -1.1928 C   0  0  1  0  0  0  0  0  0  0  0  0
    2.4655    1.5837   -1.6488 C   0  0  0  0  0  0  0  0  0  0  0  0
    1.4938    2.7145   -1.9131 C   0  0  0  0  0  0  0  0  0  0  0  0
    1.0760    3.5526   -0.8690 C   0  0  0  0  0  0  0  0  0  0  0  0
    0.1753    4.5947   -1.1126 C   0  0  0  0  0  0  0  0  0  0  0  0
   -0.3980    5.8067    0.4932 I   0  0  0  0  0  0  0  0  0  0  0  0
   -0.3220    4.8133   -2.4014 C   0  0  0  0  0  0  0  0  0  0  0  0
   -1.2068    5.8277   -2.6548 O   0  0  0  0  0  0  0  0  0  0  0  0
    0.0927    3.9843   -3.4472 C   0  0  0  0  0  0  0  0  0  0  0  0
   -0.6041    4.2394   -5.4050 I   0  0  0  0  0  0  0  0  0  0  0  0
    0.9986    2.9439   -3.2055 C   0  0  0  0  0  0  0  0  0  0  0  0
    1.1954    0.3634    0.2007 C   0  0  0  0  0  0  0  0  0  0  0  0
    1.6733    0.9530    1.1565 O   0  0  0  0  0  0  0  0  0  0  0  0
    0.0252   -0.3261    0.2566 O   0  0  0  0  0  0  0  0  0  0  0  0
    1.3206   -0.5776   -2.9999 H   0  0  0  0  0  0  0  0  0  0  0  0
    0.2070    0.4543   -2.4441 H   0  0  0  0  0  0  0  0  0  0  0  0
    2.6287   -0.4966   -1.0921 H   0  0  0  0  0  0  0  0  0  0  0  0
    3.0501    1.4054   -2.5615 H   0  0  0  0  0  0  0  0  0  0  0  0
    3.1956    1.9219   -0.9014 H   0  0  0  0  0  0  0  0  0  0  0  0
    1.4610    3.3925    0.1382 H   0  0  0  0  0  0  0  0  0  0  0  0
   -1.3700    6.2985   -1.8178 H   0  0  0  0  0  0  0  0  0  0  0  0
    1.3264    2.3107   -4.0278 H   0  0  0  0  0  0  0  0  0  0  0  0
   -0.1032   -0.7158   -0.6448 H   0  0  0  0  0  0  0  0  0  0  0  0
  1  2  1  0  0  0  0
  1 16  1  0  0  0  0
  1 17  1  0  0  0  0
  2  3  1  0  0  0  0
  2 13  1  0  0  0  0
  2 18  1  1  0  0  0
  3  4  1  0  0  0  0
  3 19  1  0  0  0  0
  3 20  1  0  0  0  0
  4  5  1  0  0  0  0
  4 12  2  0  0  0  0
  5  6  2  0  0  0  0
  5 21  1  0  0  0  0
  6  7  1  0  0  0  0
  6  8  1  0  0  0  0
  8  9  1  0  0  0  0
  8 10  2  0  0  0  0
  9 22  1  0  0  0  0
 10 11  1  0  0  0  0
 10 12  1  0  0  0  0
 12 23  1  0  0  0  0
 13 14  2  0  0  0  0
 13 15  1  0  0  0  0
 15 24  1  0  0  0  0
M  END
$$$$
