CHEBI:17520
 OpenBabel04242416443D

 20 20  0  0  0  0  0  0  0  0999 V2000
    1.1410    1.1480   -0.1362 O   0  0  0  0  0  0  0  0  0  0  0  0
    2.5223    1.3891   -0.0850 N   0  0  0  0  0  0  0  0  0  0  0  0
    3.1061    0.7651    0.8965 C   0  0  0  0  0  0  0  0  0  0  0  0
    2.2712   -0.2710    2.0444 S   0  0  0  0  0  0  0  0  0  0  0  0
    4.5980    0.9077    1.1059 C   0  0  0  0  0  0  0  0  0  0  0  0
    4.9488    2.0610    2.0160 C   0  0  0  0  0  0  0  0  0  0  0  0
    5.1423    1.8539    3.3887 C   0  0  0  0  0  0  0  0  0  0  0  0
    5.4485    2.9255    4.2290 C   0  0  0  0  0  0  0  0  0  0  0  0
    5.5616    4.2126    3.7070 C   0  0  0  0  0  0  0  0  0  0  0  0
    5.3647    4.4307    2.3449 C   0  0  0  0  0  0  0  0  0  0  0  0
    5.0559    3.3613    1.5030 C   0  0  0  0  0  0  0  0  0  0  0  0
    0.8596    1.7012   -0.8896 H   0  0  0  0  0  0  0  0  0  0  0  0
    1.0637   -0.0590    1.5022 H   0  0  0  0  0  0  0  0  0  0  0  0
    5.0756    1.0602    0.1293 H   0  0  0  0  0  0  0  0  0  0  0  0
    5.0184   -0.0255    1.5001 H   0  0  0  0  0  0  0  0  0  0  0  0
    5.0530    0.8570    3.8151 H   0  0  0  0  0  0  0  0  0  0  0  0
    5.5959    2.7560    5.2924 H   0  0  0  0  0  0  0  0  0  0  0  0
    5.7993    5.0462    4.3624 H   0  0  0  0  0  0  0  0  0  0  0  0
    5.4477    5.4351    1.9379 H   0  0  0  0  0  0  0  0  0  0  0  0
    4.8955    3.5491    0.4431 H   0  0  0  0  0  0  0  0  0  0  0  0
  1  2  1  0  0  0  0
  1 12  1  0  0  0  0
  2  3  2  0  0  0  0
  3  4  1  0  0  0  0
  3  5  1  0  0  0  0
  4 13  1  0  0  0  0
  5  6  1  0  0  0  0
  5 14  1  0  0  0  0
  5 15  1  0  0  0  0
  6  7  1  0  0  0  0
  6 11  2  0  0  0  0
  7  8  2  0  0  0  0
  7 16  1  0  0  0  0
  8  9  1  0  0  0  0
  8 17  1  0  0  0  0
  9 10  2  0  0  0  0
  9 18  1  0  0  0  0
 10 11  1  0  0  0  0
 10 19  1  0  0  0  0
 11 20  1  0  0  0  0
M  END
$$$$
