CHEBI:3856
 OpenBabel04242410553D

 38 40  0  0  1  0  0  0  0  0999 V2000
    0.5493    0.4666   -0.1250 C   0  0  0  0  0  0  0  0  0  0  0  0
    1.8171    0.8950   -0.1518 C   0  0  0  0  0  0  0  0  0  0  0  0
    2.4072    1.6614    0.9618 C   0  0  0  0  0  0  0  0  0  0  0  0
    1.8973    1.8944    2.0391 O   0  0  0  0  0  0  0  0  0  0  0  0
    3.6398    2.0735    0.5683 O   0  0  0  0  0  0  0  0  0  0  0  0
    3.9053    1.7166   -0.7973 C   0  0  2  0  0  0  0  0  0  0  0  0
    5.3366    1.2149   -0.9282 C   0  0  0  0  0  0  0  0  0  0  0  0
    5.7207    0.1117    0.0717 C   0  0  2  0  0  0  0  0  0  0  0  0
    7.2400    0.2415    0.3247 C   0  0  0  0  0  0  0  0  0  0  0  0
    5.3823   -1.3226   -0.4117 C   0  0  2  0  0  0  0  0  0  0  0  0
    5.5679   -2.3340    0.7489 C   0  0  0  0  0  0  0  0  0  0  0  0
    4.2242   -2.3941    1.4668 C   0  0  0  0  0  0  0  0  0  0  0  0
    3.2473   -2.0648    0.3696 C   0  0  0  0  0  0  0  0  0  0  0  0
    2.0362   -2.1974    0.4892 O   0  0  0  0  0  0  0  0  0  0  0  0
    3.9429   -1.6440   -0.9162 C   0  0  2  0  0  0  0  0  0  0  0  0
    3.9892   -2.9395   -1.7817 C   0  0  0  0  0  0  0  0  0  0  0  0
    3.1888   -0.6054   -1.7672 C   0  0  0  0  0  0  0  0  0  0  0  0
    2.8001    0.7878   -1.2602 C   0  0  2  0  0  0  0  0  0  0  0  0
   -0.0816    0.6301    0.7450 H   0  0  0  0  0  0  0  0  0  0  0  0
    0.1165   -0.0787   -0.9567 H   0  0  0  0  0  0  0  0  0  0  0  0
    3.8385    2.6517   -1.3710 H   0  0  0  0  0  0  0  0  0  0  0  0
    5.9747    2.0888   -0.7354 H   0  0  0  0  0  0  0  0  0  0  0  0
    5.5565    0.9084   -1.9576 H   0  0  0  0  0  0  0  0  0  0  0  0
    5.2282    0.2935    1.0338 H   0  0  0  0  0  0  0  0  0  0  0  0
    7.8078    0.0739   -0.5972 H   0  0  0  0  0  0  0  0  0  0  0  0
    7.6031   -0.4625    1.0767 H   0  0  0  0  0  0  0  0  0  0  0  0
    7.4866    1.2436    0.6940 H   0  0  0  0  0  0  0  0  0  0  0  0
    6.0980   -1.5669   -1.2090 H   0  0  0  0  0  0  0  0  0  0  0  0
    6.3652   -2.0844    1.4520 H   0  0  0  0  0  0  0  0  0  0  0  0
    5.8238   -3.3219    0.3472 H   0  0  0  0  0  0  0  0  0  0  0  0
    4.1513   -1.6426    2.2567 H   0  0  0  0  0  0  0  0  0  0  0  0
    4.0357   -3.3943    1.8653 H   0  0  0  0  0  0  0  0  0  0  0  0
    4.4310   -3.7916   -1.2554 H   0  0  0  0  0  0  0  0  0  0  0  0
    4.5666   -2.7769   -2.6985 H   0  0  0  0  0  0  0  0  0  0  0  0
    2.9789   -3.2550   -2.0707 H   0  0  0  0  0  0  0  0  0  0  0  0
    2.2504   -1.0723   -2.1031 H   0  0  0  0  0  0  0  0  0  0  0  0
    3.7684   -0.4575   -2.6901 H   0  0  0  0  0  0  0  0  0  0  0  0
    2.3375    1.2774   -2.1318 H   0  0  0  0  0  0  0  0  0  0  0  0
  1  2  2  0  0  0  0
  1 19  1  0  0  0  0
  1 20  1  0  0  0  0
  2  3  1  0  0  0  0
  2 18  1  0  0  0  0
  3  5  1  0  0  0  0
  3  4  2  0  0  0  0
  5  6  1  0  0  0  0
  6  7  1  0  0  0  0
  6 18  1  0  0  0  0
  6 21  1  1  0  0  0
  7  8  1  0  0  0  0
  7 22  1  0  0  0  0
  7 23  1  0  0  0  0
  8 10  1  0  0  0  0
  8  9  1  0  0  0  0
  8 24  1  1  0  0  0
  9 25  1  0  0  0  0
  9 26  1  0  0  0  0
  9 27  1  0  0  0  0
 10 11  1  0  0  0  0
 10 15  1  0  0  0  0
 10 28  1  1  0  0  0
 11 12  1  0  0  0  0
 11 29  1  0  0  0  0
 11 30  1  0  0  0  0
 12 13  1  0  0  0  0
 12 31  1  0  0  0  0
 12 32  1  0  0  0  0
 13 15  1  0  0  0  0
 13 14  2  0  0  0  0
 15 17  1  0  0  0  0
 15 16  1  6  0  0  0
 16 33  1  0  0  0  0
 16 34  1  0  0  0  0
 16 35  1  0  0  0  0
 17 18  1  0  0  0  0
 17 36  1  0  0  0  0
 17 37  1  0  0  0  0
 18 38  1  1  0  0  0
M  END
$$$$
