CHEBI:16301
 OpenBabel04242414093D

  3  2  0  0  0  0  0  0  0  0999 V2000
    1.0026    0.0691   -0.0074 O   0  0  0  0  0  0  0  0  0  0  0  0
    2.3361    0.1080    0.0628 N   0  0  0  0  0  0  0  0  0  0  0  0
    2.8890   -0.4816   -1.0008 O   0  5  0  0  0  0  0  0  0  0  0  0
  1  2  2  0  0  0  0
  2  3  1  0  0  0  0
M  CHG  1   3  -1
M  END
$$$$
