CHEBI:15775
 OpenBabel04242413143D

 17 16  0  0  0  0  0  0  0  0999 V2000
    1.3130   -0.6096   -2.1570 O   0  0  0  0  0  0  0  0  0  0  0  0
    1.0318   -0.3365   -0.9579 C   0  0  0  0  0  0  0  0  0  0  0  0
    0.0240    0.2875   -0.5048 O   0  5  0  0  0  0  0  0  0  0  0  0
    2.0551   -0.7318    0.1076 C   0  0  0  0  0  0  0  0  0  0  0  0
    3.2778   -1.5016   -0.3795 C   0  0  0  0  0  0  0  0  0  0  0  0
    3.0169   -2.9822   -0.6327 C   0  0  0  0  0  0  0  0  0  0  0  0
    2.0691   -3.5865   -0.1151 O   0  0  0  0  0  0  0  0  0  0  0  0
    3.9557   -3.6998   -1.5681 C   0  0  0  0  0  0  0  0  0  0  0  0
    5.3988   -3.5917   -1.1221 C   0  0  0  0  0  0  0  0  0  0  0  0
    5.6320   -3.7525    0.1089 O   0  0  0  0  0  0  0  0  0  0  0  0
    6.2352   -3.4043   -2.0556 O   0  5  0  0  0  0  0  0  0  0  0  0
    1.5352   -1.2914    0.8942 H   0  0  0  0  0  0  0  0  0  0  0  0
    2.4026    0.2061    0.5601 H   0  0  0  0  0  0  0  0  0  0  0  0
    4.0611   -1.4425    0.3845 H   0  0  0  0  0  0  0  0  0  0  0  0
    3.6725   -1.0525   -1.2974 H   0  0  0  0  0  0  0  0  0  0  0  0
    3.8171   -3.2860   -2.5727 H   0  0  0  0  0  0  0  0  0  0  0  0
    3.6840   -4.7606   -1.6024 H   0  0  0  0  0  0  0  0  0  0  0  0
  1  2  2  0  0  0  0
  2  3  1  0  0  0  0
  2  4  1  0  0  0  0
  4  5  1  0  0  0  0
  4 12  1  0  0  0  0
  4 13  1  0  0  0  0
  5  6  1  0  0  0  0
  5 14  1  0  0  0  0
  5 15  1  0  0  0  0
  6  7  2  0  0  0  0
  6  8  1  0  0  0  0
  8  9  1  0  0  0  0
  8 16  1  0  0  0  0
  8 17  1  0  0  0  0
  9 10  2  0  0  0  0
  9 11  1  0  0  0  0
M  CHG  2   3  -1  11  -1
M  END
$$$$
