CHEBI:15594
 OpenBabel04242412513D

 22 21  0  0  0  0  0  0  0  0999 V2000
    2.5291   -2.2916    2.0581 C   0  0  0  0  0  0  0  0  0  0  0  0
    3.2819   -1.8471    0.8127 C   0  0  0  0  0  0  0  0  0  0  0  0
    4.7915   -2.0603    0.9732 C   0  0  0  0  0  0  0  0  0  0  0  0
    5.5950   -1.6329   -0.2691 C   0  0  0  0  0  0  0  0  0  0  0  0
    5.6920   -0.1068   -0.4935 C   0  0  0  0  0  0  0  0  0  0  0  0
    5.1711    0.6409    0.3892 O   0  0  0  0  0  0  0  0  0  0  0  0
    6.2017    0.2603   -1.5964 O   0  5  0  0  0  0  0  0  0  0  0  0
    7.0156   -2.2277   -0.2584 C   0  0  0  0  0  0  0  0  0  0  0  0
    7.6247   -2.1001    1.0635 O   0  0  0  0  0  0  0  0  0  0  0  0
    7.0271   -3.7578   -0.6364 C   0  0  0  0  0  0  0  0  0  0  0  0
    7.5299   -4.4948    0.2806 O   0  0  0  0  0  0  0  0  0  0  0  0
    6.5850   -4.1025   -1.7668 O   0  5  0  0  0  0  0  0  0  0  0  0
    1.4565   -2.1101    1.9385 H   0  0  0  0  0  0  0  0  0  0  0  0
    2.8706   -1.7406    2.9404 H   0  0  0  0  0  0  0  0  0  0  0  0
    2.6744   -3.3607    2.2431 H   0  0  0  0  0  0  0  0  0  0  0  0
    3.0552   -0.7935    0.6220 H   0  0  0  0  0  0  0  0  0  0  0  0
    2.9159   -2.4166   -0.0495 H   0  0  0  0  0  0  0  0  0  0  0  0
    4.9615   -3.1263    1.1698 H   0  0  0  0  0  0  0  0  0  0  0  0
    5.1431   -1.5176    1.8595 H   0  0  0  0  0  0  0  0  0  0  0  0
    5.0710   -2.0153   -1.1565 H   0  0  0  0  0  0  0  0  0  0  0  0
    7.6864   -1.7203   -0.9599 H   0  0  0  0  0  0  0  0  0  0  0  0
    7.8070   -3.0462    1.2820 H   0  0  0  0  0  0  0  0  0  0  0  0
  1  2  1  0  0  0  0
  1 13  1  0  0  0  0
  1 14  1  0  0  0  0
  1 15  1  0  0  0  0
  2  3  1  0  0  0  0
  2 16  1  0  0  0  0
  2 17  1  0  0  0  0
  3  4  1  0  0  0  0
  3 18  1  0  0  0  0
  3 19  1  0  0  0  0
  4  5  1  0  0  0  0
  4  8  1  0  0  0  0
  4 20  1  0  0  0  0
  5  6  2  0  0  0  0
  5  7  1  0  0  0  0
  8  9  1  0  0  0  0
  8 10  1  0  0  0  0
  8 21  1  0  0  0  0
  9 22  1  0  0  0  0
 10 11  2  0  0  0  0
 10 12  1  0  0  0  0
M  CHG  2   7  -1  12  -1
M  END
$$$$
