CHEBI:15493
 OpenBabel04242412133D

159165  0  0  1  0  0  0  0  0999 V2000
   17.8215   15.4624   25.4437 C   0  0  0  0  0  0  0  0  0  0  0  0
   17.8894   14.1280   24.7000 C   0  0  0  0  0  0  0  0  0  0  0  0
   19.2193   13.3848   24.9113 C   0  0  0  0  0  0  0  0  0  0  0  0
   20.5437   14.1363   24.8564 C   0  0  0  0  0  0  0  0  0  0  0  0
   20.9755   14.9533   26.0865 C   0  0  0  0  0  0  0  0  0  0  0  0
   20.7118   14.4144   27.5344 C   0  0  1  0  0  0  0  0  0  0  0  0
   21.2316   12.9882   27.6632 C   0  0  0  0  0  0  0  0  0  0  0  0
   21.2988   15.4827   28.5500 C   0  0  1  0  0  0  0  0  0  0  0  0
   20.3357   16.7005   28.5900 C   0  0  0  0  0  0  0  0  0  0  0  0
   19.7698   16.7228   30.0033 C   0  0  0  0  0  0  0  0  0  0  0  0
   21.0258   16.4462   30.7986 C   0  0  1  0  0  0  0  0  0  0  0  0
   20.9639   16.2195   32.3059 C   0  0  2  0  0  0  0  0  0  0  0  0
   20.1214   17.2480   33.0594 C   0  0  2  0  0  0  0  0  0  0  0  0
   20.6342   18.5564   32.8526 O   0  0  0  0  0  0  0  0  0  0  0  0
   20.0768   16.8853   34.5463 C   0  0  0  0  0  0  0  0  0  0  0  0
   21.4596   16.6841   35.2064 C   0  0  2  0  0  0  0  0  0  0  0  0
   22.0798   18.0505   35.5487 C   0  0  0  0  0  0  0  0  0  0  0  0
   23.4330   17.9109   36.2288 C   0  0  2  0  0  0  0  0  0  0  0  0
   23.9589   19.2007   36.5185 O   0  0  0  0  0  0  0  0  0  0  0  0
   24.3930   17.1488   35.3276 C   0  0  0  0  0  0  0  0  0  0  0  0
   23.8471   15.7597   35.0236 C   0  0  0  0  0  0  0  0  0  0  0  0
   22.4190   15.7369   34.3942 C   0  0  1  0  0  0  0  0  0  0  0  0
   21.9192   14.2726   34.5620 C   0  0  0  0  0  0  0  0  0  0  0  0
   22.4279   16.1501   32.8671 C   0  0  1  0  0  0  0  0  0  0  0  0
   23.4074   15.3000   31.9816 C   0  0  0  0  0  0  0  0  0  0  0  0
   23.1774   15.3404   30.4469 C   0  0  2  0  0  0  0  0  0  0  0  0
   23.7633   16.5359   29.9153 O   0  0  0  0  0  0  0  0  0  0  0  0
   21.6681   15.2255   30.0708 C   0  0  2  0  0  0  0  0  0  0  0  0
   21.1321   13.8708   30.5731 C   0  0  0  0  0  0  0  0  0  0  0  0
   16.6713   13.2845   25.1327 C   0  0  0  0  0  0  0  0  0  0  0  0
   15.6478   13.7701   25.5988 O   0  0  0  0  0  0  0  0  0  0  0  0
   16.7288   11.5373   24.8574 S   0  0  0  0  0  0  0  0  0  0  0  0
   16.7185   10.9664   26.5991 C   0  0  0  0  0  0  0  0  0  0  0  0
   18.1357   10.9493   27.1784 C   0  0  0  0  0  0  0  0  0  0  0  0
   18.2990   10.1299   28.3648 N   0  0  0  0  0  0  0  0  0  0  0  0
   19.1164    9.0347   28.4962 C   0  0  0  0  0  0  0  0  0  0  0  0
   19.5761    8.7635   29.5879 O   0  0  0  0  0  0  0  0  0  0  0  0
   19.3945    8.1630   27.2817 C   0  0  0  0  0  0  0  0  0  0  0  0
   20.8714    8.2051   26.8998 C   0  0  0  0  0  0  0  0  0  0  0  0
   21.7245    7.4580   27.7992 N   0  0  0  0  0  0  0  0  0  0  0  0
   23.0564    7.2107   27.7742 C   0  0  0  0  0  0  0  0  0  0  0  0
   23.5260    6.6025   28.7475 O   0  0  0  0  0  0  0  0  0  0  0  0
   24.0080    7.5696   26.5950 C   0  0  2  0  0  0  0  0  0  0  0  0
   25.2949    7.0265   26.9887 O   0  0  0  0  0  0  0  0  0  0  0  0
   24.2317    9.0576   26.1471 C   0  0  0  0  0  0  0  0  0  0  0  0
   25.6845    9.2687   25.6322 C   0  0  0  0  0  0  0  0  0  0  0  0
   23.3442    9.3603   24.9127 C   0  0  0  0  0  0  0  0  0  0  0  0
   23.9148   10.0613   27.2924 C   0  0  0  0  0  0  0  0  0  0  0  0
   25.0023   10.9327   27.5690 O   0  0  0  0  0  0  0  0  0  0  0  0
   24.7554   12.1131   28.6219 P   0  0  0  0  0  0  0  0  0  0  0  0
   23.6753   11.8381   29.6190 O   0  0  0  0  0  0  0  0  0  0  0  0
   26.1464   12.2334   29.3869 O   0  0  0  0  0  0  0  0  0  0  0  0
   24.6349   13.4678   27.8020 O   0  0  0  0  0  0  0  0  0  0  0  0
   24.9979   13.6695   26.2767 P   0  0  0  0  0  0  0  0  0  0  0  0
   26.2617   13.1042   25.7292 O   0  0  0  0  0  0  0  0  0  0  0  0
   23.7753   12.9327   25.5339 O   0  0  0  0  0  0  0  0  0  0  0  0
   24.7463   15.1838   25.8057 O   0  0  0  0  0  0  0  0  0  0  0  0
   24.6634   16.2633   26.7102 C   0  0  0  0  0  0  0  0  0  0  0  0
   25.9567   16.6264   27.4196 C   0  0  1  0  0  0  0  0  0  0  0  0
   26.4554   15.5263   28.2013 O   0  0  0  0  0  0  0  0  0  0  0  0
   27.8621   15.7976   28.3512 C   0  0  1  0  0  0  0  0  0  0  0  0
   28.4978   14.6754   28.9943 N   0  0  0  0  0  0  0  0  0  0  0  0
   28.7886   14.6383   30.3385 C   0  0  0  0  0  0  0  0  0  0  0  0
   29.1658   13.4426   30.7368 N   0  0  0  0  0  0  0  0  0  0  0  0
   29.1151   12.6714   29.5937 C   0  0  0  0  0  0  0  0  0  0  0  0
   29.2844   11.2926   29.3805 C   0  0  0  0  0  0  0  0  0  0  0  0
   29.5710   10.3977   30.4066 N   0  0  0  0  0  0  0  0  0  0  0  0
   29.0731   10.7966   28.1421 N   0  0  0  0  0  0  0  0  0  0  0  0
   28.7518   11.6646   27.1573 C   0  0  0  0  0  0  0  0  0  0  0  0
   28.6130   13.0038   27.2333 N   0  0  0  0  0  0  0  0  0  0  0  0
   28.7590   13.4345   28.4920 C   0  0  0  0  0  0  0  0  0  0  0  0
   28.2937   16.2129   26.9437 C   0  0  2  0  0  0  0  0  0  0  0  0
   29.5299   16.9183   26.8596 O   0  0  0  0  0  0  0  0  0  0  0  0
   27.0912   17.0566   26.4862 C   0  0  2  0  0  0  0  0  0  0  0  0
   27.3147   18.4578   26.4002 O   0  0  0  0  0  0  0  0  0  0  0  0
   27.6084   19.4775   27.5935 P   0  0  0  0  0  0  0  0  0  0  0  0
   28.0379   20.8458   27.1983 O   0  0  0  0  0  0  0  0  0  0  0  0
   26.2798   19.4939   28.4766 O   0  0  0  0  0  0  0  0  0  0  0  0
   28.6290   18.7498   28.5723 O   0  0  0  0  0  0  0  0  0  0  0  0
   17.9022   15.3134   26.5252 H   0  0  0  0  0  0  0  0  0  0  0  0
   16.8670   15.9682   25.2617 H   0  0  0  0  0  0  0  0  0  0  0  0
   18.6026   16.1502   25.1140 H   0  0  0  0  0  0  0  0  0  0  0  0
   17.7730   14.3353   23.6285 H   0  0  0  0  0  0  0  0  0  0  0  0
   19.2817   12.6042   24.1398 H   0  0  0  0  0  0  0  0  0  0  0  0
   19.1814   12.8583   25.8561 H   0  0  0  0  0  0  0  0  0  0  0  0
   20.5714   14.7782   23.9681 H   0  0  0  0  0  0  0  0  0  0  0  0
   21.3223   13.3810   24.6837 H   0  0  0  0  0  0  0  0  0  0  0  0
   20.5500   15.9555   25.9931 H   0  0  0  0  0  0  0  0  0  0  0  0
   22.0560   15.1042   25.9777 H   0  0  0  0  0  0  0  0  0  0  0  0
   19.6277   14.3637   27.6897 H   0  0  0  0  0  0  0  0  0  0  0  0
   21.0977   12.3878   26.7609 H   0  0  0  0  0  0  0  0  0  0  0  0
   20.6910   12.4397   28.4393 H   0  0  0  0  0  0  0  0  0  0  0  0
   22.2888   12.9872   27.8895 H   0  0  0  0  0  0  0  0  0  0  0  0
   22.2065   15.8383   28.0807 H   0  0  0  0  0  0  0  0  0  0  0  0
   19.5389   16.6778   27.8440 H   0  0  0  0  0  0  0  0  0  0  0  0
   20.9211   17.6126   28.4040 H   0  0  0  0  0  0  0  0  0  0  0  0
   19.0117   15.9462   30.1389 H   0  0  0  0  0  0  0  0  0  0  0  0
   19.3302   17.6975   30.2317 H   0  0  0  0  0  0  0  0  0  0  0  0
   21.6410   17.3467   30.6513 H   0  0  0  0  0  0  0  0  0  0  0  0
   20.4480   15.2754   32.4841 H   0  0  0  0  0  0  0  0  0  0  0  0
   19.0974   17.2393   32.6683 H   0  0  0  0  0  0  0  0  0  0  0  0
   20.0258   19.1773   33.2902 H   0  0  0  0  0  0  0  0  0  0  0  0
   19.5040   15.9551   34.6550 H   0  0  0  0  0  0  0  0  0  0  0  0
   19.5193   17.6547   35.0937 H   0  0  0  0  0  0  0  0  0  0  0  0
   21.2674   16.2000   36.1757 H   0  0  0  0  0  0  0  0  0  0  0  0
   21.4043   18.6119   36.2075 H   0  0  0  0  0  0  0  0  0  0  0  0
   22.1994   18.6733   34.6571 H   0  0  0  0  0  0  0  0  0  0  0  0
   23.3176   17.3867   37.1849 H   0  0  0  0  0  0  0  0  0  0  0  0
   24.0142   19.6962   35.6840 H   0  0  0  0  0  0  0  0  0  0  0  0
   25.3688   17.0664   35.8219 H   0  0  0  0  0  0  0  0  0  0  0  0
   24.5765   17.7069   34.4017 H   0  0  0  0  0  0  0  0  0  0  0  0
   23.8256   15.2074   35.9740 H   0  0  0  0  0  0  0  0  0  0  0  0
   24.5640   15.2201   34.3954 H   0  0  0  0  0  0  0  0  0  0  0  0
   21.8609   14.0005   35.6226 H   0  0  0  0  0  0  0  0  0  0  0  0
   22.6005   13.5527   34.0978 H   0  0  0  0  0  0  0  0  0  0  0  0
   20.9247   14.1068   34.1433 H   0  0  0  0  0  0  0  0  0  0  0  0
   22.8280   17.1733   32.8157 H   0  0  0  0  0  0  0  0  0  0  0  0
   23.3837   14.2519   32.2879 H   0  0  0  0  0  0  0  0  0  0  0  0
   24.4296   15.6510   32.1813 H   0  0  0  0  0  0  0  0  0  0  0  0
   23.7372   14.5204   29.9933 H   0  0  0  0  0  0  0  0  0  0  0  0
   23.7048   17.2363   30.5876 H   0  0  0  0  0  0  0  0  0  0  0  0
   21.6737   13.0471   30.1182 H   0  0  0  0  0  0  0  0  0  0  0  0
   20.0637   13.7546   30.3739 H   0  0  0  0  0  0  0  0  0  0  0  0
   21.2867   13.6968   31.6400 H   0  0  0  0  0  0  0  0  0  0  0  0
   16.2928    9.9588   26.6113 H   0  0  0  0  0  0  0  0  0  0  0  0
   16.0637   11.6020   27.2058 H   0  0  0  0  0  0  0  0  0  0  0  0
   18.3899   11.9611   27.5086 H   0  0  0  0  0  0  0  0  0  0  0  0
   18.8781   10.6427   26.4347 H   0  0  0  0  0  0  0  0  0  0  0  0
   18.1941   10.6051   29.2567 H   0  0  0  0  0  0  0  0  0  0  0  0
   18.7800    8.4752   26.4335 H   0  0  0  0  0  0  0  0  0  0  0  0
   19.0819    7.1441   27.5370 H   0  0  0  0  0  0  0  0  0  0  0  0
   21.2189    9.2391   26.9085 H   0  0  0  0  0  0  0  0  0  0  0  0
   21.0061    7.7791   25.9006 H   0  0  0  0  0  0  0  0  0  0  0  0
   21.3190    7.1863   28.6941 H   0  0  0  0  0  0  0  0  0  0  0  0
   23.7003    6.9551   25.7421 H   0  0  0  0  0  0  0  0  0  0  0  0
   25.1618    6.5833   27.8554 H   0  0  0  0  0  0  0  0  0  0  0  0
   25.9289    8.5557   24.8367 H   0  0  0  0  0  0  0  0  0  0  0  0
   26.4263    9.1553   26.4300 H   0  0  0  0  0  0  0  0  0  0  0  0
   25.8123   10.2742   25.2116 H   0  0  0  0  0  0  0  0  0  0  0  0
   22.2830    9.4161   25.1398 H   0  0  0  0  0  0  0  0  0  0  0  0
   23.4743    8.5942   24.1389 H   0  0  0  0  0  0  0  0  0  0  0  0
   23.6080   10.3214   24.4591 H   0  0  0  0  0  0  0  0  0  0  0  0
   23.6748    9.5508   28.2275 H   0  0  0  0  0  0  0  0  0  0  0  0
   23.0480   10.6767   27.0304 H   0  0  0  0  0  0  0  0  0  0  0  0
   26.1422   11.7089   30.2081 H   0  0  0  0  0  0  0  0  0  0  0  0
   24.1366   12.5293   24.7222 H   0  0  0  0  0  0  0  0  0  0  0  0
   23.9209   16.0231   27.4529 H   0  0  0  0  0  0  0  0  0  0  0  0
   24.3017   17.1322   26.1471 H   0  0  0  0  0  0  0  0  0  0  0  0
   25.7024   17.4057   28.1333 H   0  0  0  0  0  0  0  0  0  0  0  0
   27.9589   16.6293   29.0528 H   0  0  0  0  0  0  0  0  0  0  0  0
   28.6725   15.5041   30.9785 H   0  0  0  0  0  0  0  0  0  0  0  0
   29.3560   10.7700   31.3247 H   0  0  0  0  0  0  0  0  0  0  0  0
   29.2418    9.4669   30.1847 H   0  0  0  0  0  0  0  0  0  0  0  0
   28.5636   11.2247   26.1817 H   0  0  0  0  0  0  0  0  0  0  0  0
   28.3500   15.3308   26.2951 H   0  0  0  0  0  0  0  0  0  0  0  0
   29.8466   16.7840   25.9442 H   0  0  0  0  0  0  0  0  0  0  0  0
   26.8546   16.7606   25.4571 H   0  0  0  0  0  0  0  0  0  0  0  0
   26.2962   20.2370   29.1074 H   0  0  0  0  0  0  0  0  0  0  0  0
   29.5139   18.6793   28.1570 H   0  0  0  0  0  0  0  0  0  0  0  0
  1  2  1  0  0  0  0
  1 80  1  0  0  0  0
  1 81  1  0  0  0  0
  1 82  1  0  0  0  0
  2  3  1  0  0  0  0
  2 30  1  0  0  0  0
  2 83  1  0  0  0  0
  3  4  1  0  0  0  0
  3 84  1  0  0  0  0
  3 85  1  0  0  0  0
  4  5  1  0  0  0  0
  4 86  1  0  0  0  0
  4 87  1  0  0  0  0
  5  6  1  0  0  0  0
  5 88  1  0  0  0  0
  5 89  1  0  0  0  0
  6  7  1  0  0  0  0
  6  8  1  0  0  0  0
  6 90  1  1  0  0  0
  7 91  1  0  0  0  0
  7 92  1  0  0  0  0
  7 93  1  0  0  0  0
  8  9  1  0  0  0  0
  8 28  1  0  0  0  0
  8 94  1  6  0  0  0
  9 10  1  0  0  0  0
  9 95  1  0  0  0  0
  9 96  1  0  0  0  0
 10 11  1  0  0  0  0
 10 97  1  0  0  0  0
 10 98  1  0  0  0  0
 11 12  1  0  0  0  0
 11 28  1  0  0  0  0
 11 99  1  6  0  0  0
 12 13  1  0  0  0  0
 12 24  1  0  0  0  0
 12100  1  1  0  0  0
 13 14  1  0  0  0  0
 13 15  1  0  0  0  0
 13101  1  6  0  0  0
 14102  1  0  0  0  0
 15 16  1  0  0  0  0
 15103  1  0  0  0  0
 15104  1  0  0  0  0
 16 17  1  0  0  0  0
 16 22  1  0  0  0  0
 16105  1  1  0  0  0
 17 18  1  0  0  0  0
 17106  1  0  0  0  0
 17107  1  0  0  0  0
 18 19  1  0  0  0  0
 18 20  1  0  0  0  0
 18108  1  1  0  0  0
 19109  1  0  0  0  0
 20 21  1  0  0  0  0
 20110  1  0  0  0  0
 20111  1  0  0  0  0
 21 22  1  0  0  0  0
 21112  1  0  0  0  0
 21113  1  0  0  0  0
 22 23  1  1  0  0  0
 22 24  1  0  0  0  0
 23114  1  0  0  0  0
 23115  1  0  0  0  0
 23116  1  0  0  0  0
 24 25  1  0  0  0  0
 24117  1  6  0  0  0
 25 26  1  0  0  0  0
 25118  1  0  0  0  0
 25119  1  0  0  0  0
 26 27  1  0  0  0  0
 26 28  1  0  0  0  0
 26120  1  6  0  0  0
 27121  1  0  0  0  0
 28 29  1  1  0  0  0
 29122  1  0  0  0  0
 29123  1  0  0  0  0
 29124  1  0  0  0  0
 30 31  2  0  0  0  0
 30 32  1  0  0  0  0
 32 33  1  0  0  0  0
 33 34  1  0  0  0  0
 33125  1  0  0  0  0
 33126  1  0  0  0  0
 34 35  1  0  0  0  0
 34127  1  0  0  0  0
 34128  1  0  0  0  0
 35 36  1  0  0  0  0
 35129  1  0  0  0  0
 36 37  2  0  0  0  0
 36 38  1  0  0  0  0
 38 39  1  0  0  0  0
 38130  1  0  0  0  0
 38131  1  0  0  0  0
 39 40  1  0  0  0  0
 39132  1  0  0  0  0
 39133  1  0  0  0  0
 40 41  1  0  0  0  0
 40134  1  0  0  0  0
 41 42  2  0  0  0  0
 43 45  1  0  0  0  0
 43 44  1  0  0  0  0
 43 41  1  0  0  0  0
 43135  1  6  0  0  0
 44136  1  0  0  0  0
 45 46  1  0  0  0  0
 45 47  1  0  0  0  0
 45 48  1  0  0  0  0
 46137  1  0  0  0  0
 46138  1  0  0  0  0
 46139  1  0  0  0  0
 47140  1  0  0  0  0
 47141  1  0  0  0  0
 47142  1  0  0  0  0
 48 49  1  0  0  0  0
 48143  1  0  0  0  0
 48144  1  0  0  0  0
 49 50  1  0  0  0  0
 50 51  2  0  0  0  0
 50 52  1  0  0  0  0
 50 53  1  0  0  0  0
 52145  1  0  0  0  0
 53 54  1  0  0  0  0
 54 55  2  0  0  0  0
 54 56  1  0  0  0  0
 54 57  1  0  0  0  0
 56146  1  0  0  0  0
 57 58  1  0  0  0  0
 58147  1  0  0  0  0
 58148  1  0  0  0  0
 59 60  1  0  0  0  0
 59 74  1  0  0  0  0
 59 58  1  0  0  0  0
 59149  1  1  0  0  0
 60 61  1  0  0  0  0
 61 72  1  0  0  0  0
 61 62  1  0  0  0  0
 61150  1  1  0  0  0
 62 63  1  0  0  0  0
 62 71  1  0  0  0  0
 63 64  2  0  0  0  0
 63151  1  0  0  0  0
 64 65  1  0  0  0  0
 65 66  1  0  0  0  0
 65 71  2  0  0  0  0
 66 67  1  0  0  0  0
 66 68  2  0  0  0  0
 67152  1  0  0  0  0
 67153  1  0  0  0  0
 68 69  1  0  0  0  0
 69 70  2  0  0  0  0
 69154  1  0  0  0  0
 70 71  1  0  0  0  0
 72 73  1  0  0  0  0
 72 74  1  0  0  0  0
 72155  1  6  0  0  0
 73156  1  0  0  0  0
 74 75  1  0  0  0  0
 74157  1  6  0  0  0
 75 76  1  0  0  0  0
 76 77  2  0  0  0  0
 76 78  1  0  0  0  0
 76 79  1  0  0  0  0
 78158  1  0  0  0  0
 79159  1  0  0  0  0
M  END
$$$$
