CHEBI:17382
 OpenBabel04242416273D

 44 45  0  0  1  0  0  0  0  0999 V2000
   11.4163    3.7013   -0.3088 C   0  0  0  0  0  0  0  0  0  0  0  0
   10.0211    3.1513   -0.3551 C   0  0  0  0  0  0  0  0  0  0  0  0
    9.7345    2.1519    0.5117 N   0  0  0  0  0  0  0  0  0  0  0  0
    8.4828    1.6501    0.4752 C   0  0  0  0  0  0  0  0  0  0  0  0
    7.4731    2.0934   -0.3796 C   0  0  0  0  0  0  0  0  0  0  0  0
    6.1124    1.4552   -0.2789 C   0  0  0  0  0  0  0  0  0  0  0  0
    5.8225    0.7844   -1.4992 O   0  0  0  0  0  0  0  0  0  0  0  0
    4.5472    0.1379   -1.4657 C   0  0  2  0  0  0  0  0  0  0  0  0
    4.6010   -0.9542   -0.5462 O   0  0  0  0  0  0  0  0  0  0  0  0
    3.3654   -1.6681   -0.4567 C   0  0  2  0  0  0  0  0  0  0  0  0
    3.4752   -2.7177    0.6581 C   0  0  0  0  0  0  0  0  0  0  0  0
    2.2234   -3.3354    0.9337 O   0  0  0  0  0  0  0  0  0  0  0  0
    3.0505   -2.3238   -1.8091 C   0  0  1  0  0  0  0  0  0  0  0  0
    1.8118   -3.0396   -1.7608 O   0  0  0  0  0  0  0  0  0  0  0  0
    2.9817   -1.2431   -2.8896 C   0  0  2  0  0  0  0  0  0  0  0  0
    2.8010   -1.8577   -4.1786 O   0  0  0  0  0  0  0  0  0  0  0  0
    4.2309   -0.3583   -2.8934 C   0  0  1  0  0  0  0  0  0  0  0  0
    4.0079    0.7444   -3.7888 O   0  0  0  0  0  0  0  0  0  0  0  0
    7.7793    3.1301   -1.2899 C   0  0  0  0  0  0  0  0  0  0  0  0
    6.7213    3.5974   -2.2645 C   0  0  0  0  0  0  0  0  0  0  0  0
    7.1326    4.7469   -3.0089 O   0  0  0  0  0  0  0  0  0  0  0  0
    9.0830    3.6540   -1.2619 C   0  0  0  0  0  0  0  0  0  0  0  0
    9.4748    4.6621   -2.1015 O   0  0  0  0  0  0  0  0  0  0  0  0
   11.9882    3.2398    0.5031 H   0  0  0  0  0  0  0  0  0  0  0  0
   11.3969    4.7812   -0.1321 H   0  0  0  0  0  0  0  0  0  0  0  0
   11.9362    3.4960   -1.2495 H   0  0  0  0  0  0  0  0  0  0  0  0
    8.3085    0.8457    1.1857 H   0  0  0  0  0  0  0  0  0  0  0  0
    5.3602    2.2274   -0.0784 H   0  0  0  0  0  0  0  0  0  0  0  0
    6.0858    0.7420    0.5532 H   0  0  0  0  0  0  0  0  0  0  0  0
    3.7903    0.8670   -1.1468 H   0  0  0  0  0  0  0  0  0  0  0  0
    2.5571   -0.9760   -0.1832 H   0  0  0  0  0  0  0  0  0  0  0  0
    4.2032   -3.4936    0.3965 H   0  0  0  0  0  0  0  0  0  0  0  0
    3.8328   -2.2500    1.5817 H   0  0  0  0  0  0  0  0  0  0  0  0
    1.8124   -3.5524    0.0697 H   0  0  0  0  0  0  0  0  0  0  0  0
    3.8302   -3.0490   -2.0733 H   0  0  0  0  0  0  0  0  0  0  0  0
    1.5194   -3.1516   -2.6890 H   0  0  0  0  0  0  0  0  0  0  0  0
    2.0867   -0.6257   -2.7424 H   0  0  0  0  0  0  0  0  0  0  0  0
    3.5843   -2.4057   -4.3725 H   0  0  0  0  0  0  0  0  0  0  0  0
    5.0864   -0.9160   -3.2939 H   0  0  0  0  0  0  0  0  0  0  0  0
    3.6590    0.3601   -4.6164 H   0  0  0  0  0  0  0  0  0  0  0  0
    5.8114    3.8770   -1.7244 H   0  0  0  0  0  0  0  0  0  0  0  0
    6.5010    2.8033   -2.9840 H   0  0  0  0  0  0  0  0  0  0  0  0
    6.4017    4.9332   -3.6271 H   0  0  0  0  0  0  0  0  0  0  0  0
    8.6797    4.9225   -2.6173 H   0  0  0  0  0  0  0  0  0  0  0  0
  1  2  1  0  0  0  0
  1 24  1  0  0  0  0
  1 25  1  0  0  0  0
  1 26  1  0  0  0  0
  2  3  1  0  0  0  0
  2 22  2  0  0  0  0
  3  4  2  0  0  0  0
  4  5  1  0  0  0  0
  4 27  1  0  0  0  0
  5  6  1  0  0  0  0
  5 19  2  0  0  0  0
  6  7  1  0  0  0  0
  6 28  1  0  0  0  0
  6 29  1  0  0  0  0
  8  9  1  0  0  0  0
  8 17  1  0  0  0  0
  8  7  1  0  0  0  0
  8 30  1  1  0  0  0
  9 10  1  0  0  0  0
 10 13  1  0  0  0  0
 10 11  1  0  0  0  0
 10 31  1  1  0  0  0
 11 12  1  0  0  0  0
 11 32  1  0  0  0  0
 11 33  1  0  0  0  0
 12 34  1  0  0  0  0
 13 14  1  0  0  0  0
 13 15  1  0  0  0  0
 13 35  1  6  0  0  0
 14 36  1  0  0  0  0
 15 16  1  0  0  0  0
 15 17  1  0  0  0  0
 15 37  1  1  0  0  0
 16 38  1  0  0  0  0
 17 18  1  0  0  0  0
 17 39  1  6  0  0  0
 18 40  1  0  0  0  0
 19 20  1  0  0  0  0
 19 22  1  0  0  0  0
 20 21  1  0  0  0  0
 20 41  1  0  0  0  0
 20 42  1  0  0  0  0
 21 43  1  0  0  0  0
 22 23  1  0  0  0  0
 23 44  1  0  0  0  0
M  END
$$$$
