CHEBI:17025
 OpenBabel04242415423D

 17 17  0  0  1  0  0  0  0  0999 V2000
    2.2716    1.0242   -0.1793 O   0  0  0  0  0  0  0  0  0  0  0  0
    1.2399    0.3578   -0.1449 C   0  0  0  0  0  0  0  0  0  0  0  0
    1.2552   -1.1316   -0.3645 C   0  0  0  0  0  0  0  0  0  0  0  0
    0.0440   -1.7739    0.2782 C   0  0  1  0  0  0  0  0  0  0  0  0
    0.2617   -1.9241    1.7902 C   0  0  0  0  0  0  0  0  0  0  0  0
   -0.0331   -1.0742    2.6172 O   0  0  0  0  0  0  0  0  0  0  0  0
    0.8521   -3.0901    2.1431 O   0  0  0  0  0  0  0  0  0  0  0  0
   -1.1668   -1.0416   -0.0285 N   0  0  0  0  0  0  0  0  0  0  0  0
   -1.1952    0.3184   -0.0171 C   0  0  0  0  0  0  0  0  0  0  0  0
   -2.2557    0.9309   -0.0362 O   0  0  0  0  0  0  0  0  0  0  0  0
    0.0132    0.9452   -0.0079 N   0  0  0  0  0  0  0  0  0  0  0  0
    2.1866   -1.5423    0.0404 H   0  0  0  0  0  0  0  0  0  0  0  0
    1.2455   -1.2963   -1.4485 H   0  0  0  0  0  0  0  0  0  0  0  0
   -0.1125   -2.7769   -0.1349 H   0  0  0  0  0  0  0  0  0  0  0  0
    1.0456   -3.7140    1.4183 H   0  0  0  0  0  0  0  0  0  0  0  0
   -2.0750   -1.4595    0.1428 H   0  0  0  0  0  0  0  0  0  0  0  0
   -0.0072    1.9523    0.0583 H   0  0  0  0  0  0  0  0  0  0  0  0
  1  2  2  0  0  0  0
  2  3  1  0  0  0  0
  2 11  1  0  0  0  0
  3  4  1  0  0  0  0
  3 12  1  0  0  0  0
  3 13  1  0  0  0  0
  4  5  1  0  0  0  0
  4  8  1  0  0  0  0
  4 14  1  6  0  0  0
  5  6  2  0  0  0  0
  5  7  1  0  0  0  0
  7 15  1  0  0  0  0
  8  9  1  0  0  0  0
  8 16  1  0  0  0  0
  9 10  2  0  0  0  0
  9 11  1  0  0  0  0
 11 17  1  0  0  0  0
M  END
$$$$
