CHEBI:18296
 OpenBabel04252409203D

 54 55  0  0  1  0  0  0  0  0999 V2000
    2.4057    1.4215   -1.1289 H   0  0  0  0  0  0  0  0  0  0  0  0
    2.8219    0.5922   -0.8337 O   0  0  0  0  0  0  0  0  0  0  0  0
    2.5167   -0.3746   -1.8169 C   0  0  2  0  0  0  0  0  0  0  0  0
    1.1481   -0.7603   -1.7484 O   0  0  0  0  0  0  0  0  0  0  0  0
    0.7696   -1.5410   -0.6000 C   0  0  2  0  0  0  0  0  0  0  0  0
    0.6021   -0.6959    0.6746 C   0  0  0  0  0  0  0  0  0  0  0  0
   -0.4190    0.2749    0.4453 O   0  0  0  0  0  0  0  0  0  0  0  0
   -0.6682    1.3769    1.6071 S   0  0  0  0  0  0  0  0  0  0  0  0
   -1.0954    0.6929    2.8078 O   0  0  0  0  0  0  0  0  0  0  0  0
    0.4271    2.3159    1.6035 O   0  0  0  0  0  0  0  0  0  0  0  0
   -1.9766    2.1566    1.0868 O   0  0  0  0  0  0  0  0  0  0  0  0
    1.6654   -2.7845   -0.4536 C   0  0  2  0  0  0  0  0  0  0  0  0
    1.3137   -3.5621    0.6922 O   0  0  0  0  0  0  0  0  0  0  0  0
    3.1682   -2.4420   -0.4678 C   0  0  2  0  0  0  0  0  0  0  0  0
    3.4778   -1.8492    0.8139 O   0  0  0  0  0  0  0  0  0  0  0  0
    4.8544   -1.5088    0.9972 C   0  0  2  0  0  0  0  0  0  0  0  0
    5.7007   -2.6549    0.9125 O   0  0  0  0  0  0  0  0  0  0  0  0
    5.6220   -3.5588    2.0073 C   0  0  2  0  0  0  0  0  0  0  0  0
    4.3393   -4.3857    2.0694 C   0  0  0  0  0  0  0  0  0  0  0  0
    3.3053   -4.0687    2.6399 O   0  0  0  0  0  0  0  0  0  0  0  0
    4.4007   -5.5253    1.3546 O   0  0  0  0  0  0  0  0  0  0  0  0
    5.9162   -2.8644    3.3469 C   0  0  1  0  0  0  0  0  0  0  0  0
    7.3012   -2.4500    3.3519 O   0  0  0  0  0  0  0  0  0  0  0  0
    5.0620   -1.6000    3.5586 C   0  0  2  0  0  0  0  0  0  0  0  0
    3.7418   -1.8878    4.0153 O   0  0  0  0  0  0  0  0  0  0  0  0
    5.0692   -0.7091    2.3060 C   0  0  1  0  0  0  0  0  0  0  0  0
    6.3349   -0.0217    2.2303 O   0  0  0  0  0  0  0  0  0  0  0  0
    3.4728   -1.5851   -1.7244 C   0  0  1  0  0  0  0  0  0  0  0  0
    3.4105   -2.4028   -2.9508 N   0  0  0  0  0  0  0  0  0  0  0  0
    4.4519   -3.2266   -3.3130 C   0  0  0  0  0  0  0  0  0  0  0  0
    4.1788   -4.0571   -4.5356 C   0  0  0  0  0  0  0  0  0  0  0  0
    5.4988   -3.3057   -2.6820 O   0  0  0  0  0  0  0  0  0  0  0  0
    2.6611    0.1039   -2.7929 H   0  0  0  0  0  0  0  0  0  0  0  0
   -0.2392   -1.9046   -0.8376 H   0  0  0  0  0  0  0  0  0  0  0  0
    0.2884   -1.3298    1.5105 H   0  0  0  0  0  0  0  0  0  0  0  0
    1.5218   -0.1840    0.9628 H   0  0  0  0  0  0  0  0  0  0  0  0
   -2.6640    2.0487    1.7757 H   0  0  0  0  0  0  0  0  0  0  0  0
    1.4670   -3.4249   -1.3223 H   0  0  0  0  0  0  0  0  0  0  0  0
    1.8913   -3.2757    1.4313 H   0  0  0  0  0  0  0  0  0  0  0  0
    3.7191   -3.3885   -0.5173 H   0  0  0  0  0  0  0  0  0  0  0  0
    5.1651   -0.8404    0.1906 H   0  0  0  0  0  0  0  0  0  0  0  0
    6.4318   -4.2814    1.8400 H   0  0  0  0  0  0  0  0  0  0  0  0
    3.4987   -5.9101    1.3968 H   0  0  0  0  0  0  0  0  0  0  0  0
    5.7733   -3.5590    4.1826 H   0  0  0  0  0  0  0  0  0  0  0  0
    7.8571   -3.2480    3.2858 H   0  0  0  0  0  0  0  0  0  0  0  0
    5.5259   -1.0248    4.3705 H   0  0  0  0  0  0  0  0  0  0  0  0
    3.3216   -2.5562    3.4391 H   0  0  0  0  0  0  0  0  0  0  0  0
    4.2875    0.0543    2.3922 H   0  0  0  0  0  0  0  0  0  0  0  0
    7.0327   -0.6904    2.3961 H   0  0  0  0  0  0  0  0  0  0  0  0
    4.4953   -1.2008   -1.6721 H   0  0  0  0  0  0  0  0  0  0  0  0
    2.5208   -2.4912   -3.4304 H   0  0  0  0  0  0  0  0  0  0  0  0
    3.5679   -4.9199   -4.2579 H   0  0  0  0  0  0  0  0  0  0  0  0
    5.1262   -4.4052   -4.9575 H   0  0  0  0  0  0  0  0  0  0  0  0
    3.6608   -3.4654   -5.2951 H   0  0  0  0  0  0  0  0  0  0  0  0
  1  2  1  0  0  0  0
  2  3  1  0  0  0  0
  3  4  1  0  0  0  0
  3 28  1  0  0  0  0
  3 33  1  6  0  0  0
  4  5  1  0  0  0  0
  5 12  1  0  0  0  0
  5  6  1  0  0  0  0
  5 34  1  6  0  0  0
  6  7  1  0  0  0  0
  6 35  1  0  0  0  0
  6 36  1  0  0  0  0
  7  8  1  0  0  0  0
  8  9  2  0  0  0  0
  8 10  2  0  0  0  0
  8 11  1  0  0  0  0
 11 37  1  0  0  0  0
 12 14  1  0  0  0  0
 12 13  1  0  0  0  0
 12 38  1  6  0  0  0
 13 39  1  0  0  0  0
 14 28  1  0  0  0  0
 14 15  1  0  0  0  0
 14 40  1  6  0  0  0
 15 16  1  0  0  0  0
 16 17  1  0  0  0  0
 16 26  1  0  0  0  0
 16 41  1  6  0  0  0
 17 18  1  0  0  0  0
 18 22  1  0  0  0  0
 18 19  1  0  0  0  0
 18 42  1  6  0  0  0
 19 20  2  0  0  0  0
 19 21  1  0  0  0  0
 21 43  1  0  0  0  0
 22 23  1  0  0  0  0
 22 24  1  0  0  0  0
 22 44  1  1  0  0  0
 23 45  1  0  0  0  0
 24 26  1  0  0  0  0
 24 25  1  0  0  0  0
 24 46  1  1  0  0  0
 25 47  1  0  0  0  0
 26 27  1  0  0  0  0
 26 48  1  1  0  0  0
 27 49  1  0  0  0  0
 28 29  1  0  0  0  0
 28 50  1  1  0  0  0
 29 30  1  0  0  0  0
 29 51  1  0  0  0  0
 30 31  1  0  0  0  0
 30 32  2  0  0  0  0
 31 52  1  0  0  0  0
 31 53  1  0  0  0  0
 31 54  1  0  0  0  0
M  END
$$$$
