CHEBI:8029
 OpenBabel04242411133D

 30 29  0  0  1  0  0  0  0  0999 V2000
    9.3647    0.2702    4.5688 O   0  0  0  0  0  0  0  0  0  0  0  0
    8.0494    0.0883    5.1036 C   0  0  0  0  0  0  0  0  0  0  0  0
    7.1362   -0.5231    4.0321 C   0  0  1  0  0  0  0  0  0  0  0  0
    7.0262    0.4105    2.9440 O   0  0  0  0  0  0  0  0  0  0  0  0
    7.6734   -1.8667    3.4858 C   0  0  1  0  0  0  0  0  0  0  0  0
    8.9180   -1.6685    2.7989 O   0  0  0  0  0  0  0  0  0  0  0  0
    6.6681   -2.5367    2.5200 C   0  0  2  0  0  0  0  0  0  0  0  0
    6.3229   -1.6917    1.3985 O   0  0  0  0  0  0  0  0  0  0  0  0
    7.1800   -3.8558    1.9030 C   0  0  2  0  0  0  0  0  0  0  0  0
    6.1135   -4.3680    1.0715 O   0  0  0  0  0  0  0  0  0  0  0  0
    7.5359   -4.9286    2.9383 C   0  0  1  0  0  0  0  0  0  0  0  0
    6.3776   -5.2151    3.7478 O   0  0  0  0  0  0  0  0  0  0  0  0
    7.9854   -6.2430    2.2896 C   0  0  0  0  0  0  0  0  0  0  0  0
    8.3264   -7.1784    3.3172 O   0  0  0  0  0  0  0  0  0  0  0  0
    9.8656    0.7804    5.2335 H   0  0  0  0  0  0  0  0  0  0  0  0
    7.6740    1.0713    5.4053 H   0  0  0  0  0  0  0  0  0  0  0  0
    8.1183   -0.5630    5.9799 H   0  0  0  0  0  0  0  0  0  0  0  0
    6.1343   -0.6616    4.4526 H   0  0  0  0  0  0  0  0  0  0  0  0
    7.9495    0.5928    2.6687 H   0  0  0  0  0  0  0  0  0  0  0  0
    7.8674   -2.5321    4.3335 H   0  0  0  0  0  0  0  0  0  0  0  0
    9.4560   -1.0607    3.3521 H   0  0  0  0  0  0  0  0  0  0  0  0
    5.7239   -2.7158    3.0481 H   0  0  0  0  0  0  0  0  0  0  0  0
    6.3958   -0.7624    1.7053 H   0  0  0  0  0  0  0  0  0  0  0  0
    8.0302   -3.6659    1.2376 H   0  0  0  0  0  0  0  0  0  0  0  0
    5.8303   -3.5856    0.5496 H   0  0  0  0  0  0  0  0  0  0  0  0
    8.3212   -4.5863    3.6190 H   0  0  0  0  0  0  0  0  0  0  0  0
    5.6560   -5.3684    3.1019 H   0  0  0  0  0  0  0  0  0  0  0  0
    8.8636   -6.0965    1.6544 H   0  0  0  0  0  0  0  0  0  0  0  0
    7.1854   -6.6976    1.6969 H   0  0  0  0  0  0  0  0  0  0  0  0
    7.6150   -7.1024    3.9830 H   0  0  0  0  0  0  0  0  0  0  0  0
  1  2  1  0  0  0  0
  1 15  1  0  0  0  0
  2  3  1  0  0  0  0
  2 16  1  0  0  0  0
  2 17  1  0  0  0  0
  3  4  1  0  0  0  0
  3  5  1  0  0  0  0
  3 18  1  1  0  0  0
  4 19  1  0  0  0  0
  5  6  1  0  0  0  0
  5 20  1  6  0  0  0
  6 21  1  0  0  0  0
  7  8  1  0  0  0  0
  7  5  1  0  0  0  0
  7 22  1  6  0  0  0
  8 23  1  0  0  0  0
  9 11  1  0  0  0  0
  9 10  1  0  0  0  0
  9  7  1  0  0  0  0
  9 24  1  6  0  0  0
 10 25  1  0  0  0  0
 11 12  1  0  0  0  0
 11 13  1  0  0  0  0
 11 26  1  1  0  0  0
 12 27  1  0  0  0  0
 13 14  1  0  0  0  0
 13 28  1  0  0  0  0
 13 29  1  0  0  0  0
 14 30  1  0  0  0  0
M  END
$$$$
