CHEBI:18215
 OpenBabel04252409113D

 39 41  0  0  0  0  0  0  0  0999 V2000
    1.4603    1.0323    0.4836 C   0  0  0  0  0  0  0  0  0  0  0  0
    2.8173    0.7614    0.8089 O   0  0  0  0  0  0  0  0  0  0  0  0
    3.6466    1.8380    0.9739 C   0  0  0  0  0  0  0  0  0  0  0  0
    5.0060    1.5166    0.8596 C   0  0  0  0  0  0  0  0  0  0  0  0
    6.0129    2.4872    0.9976 C   0  0  0  0  0  0  0  0  0  0  0  0
    7.4390    2.0951    0.8715 C   0  0  0  0  0  0  0  0  0  0  0  0
    7.7054    0.8414    1.4050 O   0  0  0  0  0  0  0  0  0  0  0  0
    8.9841    0.3467    1.3477 C   0  0  0  0  0  0  0  0  0  0  0  0
    9.1696   -0.9273    1.8923 C   0  0  0  0  0  0  0  0  0  0  0  0
   10.4390   -1.4921    1.8815 C   0  0  0  0  0  0  0  0  0  0  0  0
   10.6709   -2.7329    2.3957 O   0  0  0  0  0  0  0  0  0  0  0  0
   11.5221   -0.8054    1.3436 C   0  0  0  0  0  0  0  0  0  0  0  0
   11.3310    0.4655    0.7976 C   0  0  0  0  0  0  0  0  0  0  0  0
   12.4054    1.1270    0.2766 O   0  0  0  0  0  0  0  0  0  0  0  0
   10.0564    1.0466    0.7906 C   0  0  0  0  0  0  0  0  0  0  0  0
    9.7775    2.3744    0.2112 C   0  0  0  0  0  0  0  0  0  0  0  0
   10.6018    3.1060   -0.3264 O   0  0  0  0  0  0  0  0  0  0  0  0
    8.3752    2.8598    0.2818 C   0  0  0  0  0  0  0  0  0  0  0  0
    8.1295    4.0950   -0.2947 O   0  0  0  0  0  0  0  0  0  0  0  0
    5.6295    3.8047    1.2940 C   0  0  0  0  0  0  0  0  0  0  0  0
    4.2813    4.1477    1.4118 C   0  0  0  0  0  0  0  0  0  0  0  0
    3.7971    5.4051    1.6878 O   0  0  0  0  0  0  0  0  0  0  0  0
    4.7516    6.4617    1.7210 C   0  0  0  0  0  0  0  0  0  0  0  0
    3.2957    3.1581    1.2573 C   0  0  0  0  0  0  0  0  0  0  0  0
    1.9872    3.5405    1.4160 O   0  0  0  0  0  0  0  0  0  0  0  0
    1.0090    0.0922    0.1504 H   0  0  0  0  0  0  0  0  0  0  0  0
    1.3755    1.7443   -0.3443 H   0  0  0  0  0  0  0  0  0  0  0  0
    0.9030    1.3617    1.3654 H   0  0  0  0  0  0  0  0  0  0  0  0
    5.2712    0.4829    0.6431 H   0  0  0  0  0  0  0  0  0  0  0  0
    8.3209   -1.4562    2.3150 H   0  0  0  0  0  0  0  0  0  0  0  0
    9.8339   -3.1068    2.7202 H   0  0  0  0  0  0  0  0  0  0  0  0
   12.5016   -1.2738    1.3560 H   0  0  0  0  0  0  0  0  0  0  0  0
   13.2086    0.5901    0.3711 H   0  0  0  0  0  0  0  0  0  0  0  0
    9.0011    4.3692   -0.6582 H   0  0  0  0  0  0  0  0  0  0  0  0
    6.4021    4.5530    1.4363 H   0  0  0  0  0  0  0  0  0  0  0  0
    4.2071    7.3980    1.8766 H   0  0  0  0  0  0  0  0  0  0  0  0
    5.2884    6.5434    0.7699 H   0  0  0  0  0  0  0  0  0  0  0  0
    5.4445    6.3367    2.5594 H   0  0  0  0  0  0  0  0  0  0  0  0
    2.0249    4.4953    1.6220 H   0  0  0  0  0  0  0  0  0  0  0  0
  1  2  1  0  0  0  0
  1 26  1  0  0  0  0
  1 27  1  0  0  0  0
  1 28  1  0  0  0  0
  2  3  1  0  0  0  0
  3  4  1  0  0  0  0
  3 24  2  0  0  0  0
  4  5  2  0  0  0  0
  4 29  1  0  0  0  0
  5  6  1  0  0  0  0
  5 20  1  0  0  0  0
  6  7  1  0  0  0  0
  6 18  2  0  0  0  0
  7  8  1  0  0  0  0
  8  9  1  0  0  0  0
  8 15  2  0  0  0  0
  9 10  2  0  0  0  0
  9 30  1  0  0  0  0
 10 11  1  0  0  0  0
 10 12  1  0  0  0  0
 11 31  1  0  0  0  0
 12 13  2  0  0  0  0
 12 32  1  0  0  0  0
 13 14  1  0  0  0  0
 13 15  1  0  0  0  0
 14 33  1  0  0  0  0
 15 16  1  0  0  0  0
 16 17  2  0  0  0  0
 16 18  1  0  0  0  0
 18 19  1  0  0  0  0
 19 34  1  0  0  0  0
 20 21  2  0  0  0  0
 20 35  1  0  0  0  0
 21 22  1  0  0  0  0
 21 24  1  0  0  0  0
 22 23  1  0  0  0  0
 23 36  1  0  0  0  0
 23 37  1  0  0  0  0
 23 38  1  0  0  0  0
 24 25  1  0  0  0  0
 25 39  1  0  0  0  0
M  END
$$$$
