CHEBI:18138
 OpenBabel04242423353D

 12 11  0  0  0  0  0  0  0  0999 V2000
    2.9148   -0.1085    1.5128 N   0  0  0  0  0  0  0  0  0  0  0  0
    2.4426   -0.1093    0.2466 C   0  0  0  0  0  0  0  0  0  0  0  0
    1.2917    0.2276   -0.0102 O   0  0  0  0  0  0  0  0  0  0  0  0
    3.2998   -0.5167   -0.7345 N   0  0  0  0  0  0  0  0  0  0  0  0
    4.6677   -0.5143   -0.6786 C   0  0  0  0  0  0  0  0  0  0  0  0
    5.2452   -0.9133   -1.8463 N   0  0  0  0  0  0  0  0  0  0  0  0
    5.3529   -0.2073    0.2887 O   0  0  0  0  0  0  0  0  0  0  0  0
    2.3255    0.3271    2.2085 H   0  0  0  0  0  0  0  0  0  0  0  0
    3.9198   -0.0109    1.6370 H   0  0  0  0  0  0  0  0  0  0  0  0
    2.8923   -0.4597   -1.6536 H   0  0  0  0  0  0  0  0  0  0  0  0
    4.7871   -1.6477   -2.3680 H   0  0  0  0  0  0  0  0  0  0  0  0
    6.2514   -1.0184   -1.7785 H   0  0  0  0  0  0  0  0  0  0  0  0
  1  2  1  0  0  0  0
  1  8  1  0  0  0  0
  1  9  1  0  0  0  0
  2  3  2  0  0  0  0
  2  4  1  0  0  0  0
  4  5  1  0  0  0  0
  4 10  1  0  0  0  0
  5  6  1  0  0  0  0
  5  7  2  0  0  0  0
  6 11  1  0  0  0  0
  6 12  1  0  0  0  0
M  END
$$$$
