CHEBI:17655
 OpenBabel04242417023D

 17 16  0  0  0  0  0  0  0  0999 V2000
    2.5680    2.2666   -0.1373 C   0  0  0  0  0  0  0  0  0  0  0  0
    2.9838    1.2525   -1.1933 C   0  0  0  0  0  0  0  0  0  0  0  0
    3.4477    1.9527   -2.3433 O   0  0  0  0  0  0  0  0  0  0  0  0
    4.0652    0.3172   -0.6727 C   0  0  0  0  0  0  0  0  0  0  0  0
    4.4168   -0.6889   -1.7321 C   0  0  0  0  0  0  0  0  0  0  0  0
    3.8787   -1.7841   -1.8742 O   0  0  0  0  0  0  0  0  0  0  0  0
    5.4992   -0.2915   -2.7360 C   0  0  0  0  0  0  0  0  0  0  0  0
    6.1709    0.7155   -2.6313 O   0  0  0  0  0  0  0  0  0  0  0  0
    5.6167   -1.2276   -3.6965 O   0  0  0  0  0  0  0  0  0  0  0  0
    1.8021    2.9404   -0.5361 H   0  0  0  0  0  0  0  0  0  0  0  0
    3.4152    2.8949    0.1595 H   0  0  0  0  0  0  0  0  0  0  0  0
    2.1692    1.7725    0.7538 H   0  0  0  0  0  0  0  0  0  0  0  0
    2.1059    0.6749   -1.5041 H   0  0  0  0  0  0  0  0  0  0  0  0
    4.2354    2.4783   -2.1063 H   0  0  0  0  0  0  0  0  0  0  0  0
    3.7208   -0.2279    0.2134 H   0  0  0  0  0  0  0  0  0  0  0  0
    4.9705    0.8617   -0.3832 H   0  0  0  0  0  0  0  0  0  0  0  0
    4.9596   -1.9443   -3.5293 H   0  0  0  0  0  0  0  0  0  0  0  0
  1  2  1  0  0  0  0
  1 10  1  0  0  0  0
  1 11  1  0  0  0  0
  1 12  1  0  0  0  0
  2  3  1  0  0  0  0
  2  4  1  0  0  0  0
  2 13  1  0  0  0  0
  3 14  1  0  0  0  0
  4  5  1  0  0  0  0
  4 15  1  0  0  0  0
  4 16  1  0  0  0  0
  5  6  2  0  0  0  0
  5  7  1  0  0  0  0
  7  8  2  0  0  0  0
  7  9  1  0  0  0  0
  9 17  1  0  0  0  0
M  END
$$$$
