CHEBI:18317
 OpenBabel04252409233D

 30 29  0  0  1  0  0  0  0  0999 V2000
    2.1607    4.4292   -4.2059 C   0  0  0  0  0  0  0  0  0  0  0  0
    1.6513    5.1430   -2.9833 C   0  0  0  0  0  0  0  0  0  0  0  0
    1.4857    6.3641   -2.9886 O   0  0  0  0  0  0  0  0  0  0  0  0
    1.3656    4.4037   -1.8792 N   0  0  0  0  0  0  0  0  0  0  0  0
    1.2217    2.9338   -1.7532 C   0  0  1  0  0  0  0  0  0  0  0  0
    2.3466    2.3382   -0.8869 C   0  0  0  0  0  0  0  0  0  0  0  0
    3.7206    2.4016   -1.5698 C   0  0  0  0  0  0  0  0  0  0  0  0
    4.8269    1.7548   -0.7226 C   0  0  0  0  0  0  0  0  0  0  0  0
    6.2168    1.8722   -1.3632 C   0  0  2  0  0  0  0  0  0  0  0  0
    6.2563    1.2100   -2.7143 N   0  0  0  0  0  0  0  0  0  0  0  0
    7.3839    1.2584   -0.4800 C   0  0  0  0  0  0  0  0  0  0  0  0
    8.3406    0.7623   -1.1593 O   0  0  0  0  0  0  0  0  0  0  0  0
    7.2514    1.3318    0.7723 O   0  5  0  0  0  0  0  0  0  0  0  0
   -0.1265    2.5387   -1.0545 C   0  0  0  0  0  0  0  0  0  0  0  0
   -0.6038    3.4234   -0.2788 O   0  0  0  0  0  0  0  0  0  0  0  0
   -0.6026    1.4125   -1.3783 O   0  5  0  0  0  0  0  0  0  0  0  0
    1.3155    4.0329   -4.7742 H   0  0  0  0  0  0  0  0  0  0  0  0
    2.8469    3.6224   -3.9483 H   0  0  0  0  0  0  0  0  0  0  0  0
    2.7108    5.1391   -4.8311 H   0  0  0  0  0  0  0  0  0  0  0  0
    0.8884    4.9001   -1.1302 H   0  0  0  0  0  0  0  0  0  0  0  0
    1.2258    2.4837   -2.7514 H   0  0  0  0  0  0  0  0  0  0  0  0
    2.1193    1.2896   -0.6553 H   0  0  0  0  0  0  0  0  0  0  0  0
    2.3963    2.8673    0.0738 H   0  0  0  0  0  0  0  0  0  0  0  0
    3.9884    3.4465   -1.7638 H   0  0  0  0  0  0  0  0  0  0  0  0
    3.6555    1.8916   -2.5376 H   0  0  0  0  0  0  0  0  0  0  0  0
    4.5861    0.6985   -0.5466 H   0  0  0  0  0  0  0  0  0  0  0  0
    4.8419    2.2358    0.2634 H   0  0  0  0  0  0  0  0  0  0  0  0
    6.4648    2.9304   -1.5096 H   0  0  0  0  0  0  0  0  0  0  0  0
    5.9824    0.2404   -2.5459 H   0  0  0  0  0  0  0  0  0  0  0  0
    7.2736    1.1040   -2.8702 H   0  0  0  0  0  0  0  0  0  0  0  0
  1  2  1  0  0  0  0
  1 17  1  0  0  0  0
  1 18  1  0  0  0  0
  1 19  1  0  0  0  0
  2  3  2  0  0  0  0
  2  4  1  0  0  0  0
  4  5  1  0  0  0  0
  4 20  1  0  0  0  0
  5  6  1  0  0  0  0
  5 14  1  0  0  0  0
  5 21  1  6  0  0  0
  6  7  1  0  0  0  0
  6 22  1  0  0  0  0
  6 23  1  0  0  0  0
  7  8  1  0  0  0  0
  7 24  1  0  0  0  0
  7 25  1  0  0  0  0
  8 26  1  0  0  0  0
  8 27  1  0  0  0  0
  9 11  1  0  0  0  0
  9 10  1  0  0  0  0
  9  8  1  0  0  0  0
  9 28  1  6  0  0  0
 10 29  1  0  0  0  0
 10 30  1  0  0  0  0
 11 12  2  0  0  0  0
 11 13  1  0  0  0  0
 14 15  2  0  0  0  0
 14 16  1  0  0  0  0
M  CHG  2  13  -1  16  -1
M  END
$$$$
