CHEBI:18247
 OpenBabel04252409163D

 40 40  0  0  1  0  0  0  0  0999 V2000
   -0.7252    9.7705   -3.8267 N   0  0  0  0  0  0  0  0  0  0  0  0
   -0.2945    8.5987   -4.4552 C   0  0  0  0  0  0  0  0  0  0  0  0
    0.3140    7.5645   -3.8272 C   0  0  0  0  0  0  0  0  0  0  0  0
    0.5315    7.6328   -2.4587 N   0  0  0  0  0  0  0  0  0  0  0  0
    1.3252    6.7549   -1.6173 C   0  0  0  0  0  0  0  0  0  0  0  0
    0.7182    5.3587   -1.3800 C   0  0  2  0  0  0  0  0  0  0  0  0
    1.6471    4.6357   -0.5419 O   0  0  0  0  0  0  0  0  0  0  0  0
   -0.6490    5.3166   -0.6738 C   0  0  2  0  0  0  0  0  0  0  0  0
   -0.5450    6.0348    0.5739 O   0  0  0  0  0  0  0  0  0  0  0  0
   -1.8751    5.8283   -1.4531 C   0  0  2  0  0  0  0  0  0  0  0  0
   -2.9854    5.7253   -0.5276 O   0  0  0  0  0  0  0  0  0  0  0  0
   -2.1463    5.0245   -2.7313 C   0  0  0  0  0  0  0  0  0  0  0  0
   -3.1955    5.6408   -3.4732 O   0  0  0  0  0  0  0  0  0  0  0  0
   -4.6128    4.9020   -3.4645 P   0  0  0  0  0  0  0  0  0  0  0  0
   -5.1470    4.6144   -2.1048 O   0  0  0  0  0  0  0  0  0  0  0  0
   -5.5421    5.8468   -4.3458 O   0  0  0  0  0  0  0  0  0  0  0  0
   -4.4141    3.6329   -4.4043 O   0  0  0  0  0  0  0  0  0  0  0  0
    0.6882    6.4722   -4.5554 N   0  0  0  0  0  0  0  0  0  0  0  0
    0.4463    6.2879   -5.8828 C   0  0  0  0  0  0  0  0  0  0  0  0
    0.7863    5.2601   -6.4605 O   0  0  0  0  0  0  0  0  0  0  0  0
   -0.1964    7.2993   -6.5206 N   0  0  0  0  0  0  0  0  0  0  0  0
   -0.5910    8.4573   -5.9246 C   0  0  0  0  0  0  0  0  0  0  0  0
   -1.2012    9.3372   -6.5292 O   0  0  0  0  0  0  0  0  0  0  0  0
   -1.1770    9.5629   -2.9399 H   0  0  0  0  0  0  0  0  0  0  0  0
   -1.3543   10.2803   -4.4542 H   0  0  0  0  0  0  0  0  0  0  0  0
    0.5608    8.6085   -2.1517 H   0  0  0  0  0  0  0  0  0  0  0  0
    1.4789    7.2475   -0.6487 H   0  0  0  0  0  0  0  0  0  0  0  0
    2.3329    6.6502   -2.0396 H   0  0  0  0  0  0  0  0  0  0  0  0
    0.6700    4.7962   -2.3143 H   0  0  0  0  0  0  0  0  0  0  0  0
    1.4716    4.9487    0.3699 H   0  0  0  0  0  0  0  0  0  0  0  0
   -0.8457    4.2787   -0.3729 H   0  0  0  0  0  0  0  0  0  0  0  0
   -1.4749    6.1173    0.8787 H   0  0  0  0  0  0  0  0  0  0  0  0
   -1.8003    6.8962   -1.6731 H   0  0  0  0  0  0  0  0  0  0  0  0
   -3.7929    5.4445   -1.0052 H   0  0  0  0  0  0  0  0  0  0  0  0
   -2.4146    3.9905   -2.4856 H   0  0  0  0  0  0  0  0  0  0  0  0
   -1.2754    4.9943   -3.3861 H   0  0  0  0  0  0  0  0  0  0  0  0
   -5.8985    6.5910   -3.8278 H   0  0  0  0  0  0  0  0  0  0  0  0
   -5.2268    3.1021   -4.4794 H   0  0  0  0  0  0  0  0  0  0  0  0
    1.2038    5.7267   -4.1142 H   0  0  0  0  0  0  0  0  0  0  0  0
   -0.4066    7.1769   -7.4980 H   0  0  0  0  0  0  0  0  0  0  0  0
  1  2  1  0  0  0  0
  1 24  1  0  0  0  0
  1 25  1  0  0  0  0
  2  3  2  0  0  0  0
  2 22  1  0  0  0  0
  3  4  1  0  0  0  0
  3 18  1  0  0  0  0
  4  5  1  0  0  0  0
  4 26  1  0  0  0  0
  5 27  1  0  0  0  0
  5 28  1  0  0  0  0
  6  7  1  0  0  0  0
  6  5  1  0  0  0  0
  6 29  1  1  0  0  0
  7 30  1  0  0  0  0
  8  9  1  0  0  0  0
  8  6  1  0  0  0  0
  8 31  1  6  0  0  0
  9 32  1  0  0  0  0
 10 12  1  0  0  0  0
 10 11  1  0  0  0  0
 10  8  1  0  0  0  0
 10 33  1  6  0  0  0
 11 34  1  0  0  0  0
 12 13  1  0  0  0  0
 12 35  1  0  0  0  0
 12 36  1  0  0  0  0
 13 14  1  0  0  0  0
 14 15  2  0  0  0  0
 14 16  1  0  0  0  0
 14 17  1  0  0  0  0
 16 37  1  0  0  0  0
 17 38  1  0  0  0  0
 18 19  1  0  0  0  0
 18 39  1  0  0  0  0
 19 20  2  0  0  0  0
 19 21  1  0  0  0  0
 21 22  1  0  0  0  0
 21 40  1  0  0  0  0
 22 23  2  0  0  0  0
M  END
$$$$
