CHEBI:16054
 OpenBabel04242413423D

 27 27  0  0  0  0  0  0  0  0999 V2000
    4.9156    3.5460    0.8502 O   0  0  0  0  0  0  0  0  0  0  0  0
    5.7390    2.7477    0.4236 C   0  0  0  0  0  0  0  0  0  0  0  0
    6.9591    2.5972    0.9759 O   0  0  0  0  0  0  0  0  0  0  0  0
    5.4641    1.8291   -0.7389 C   0  0  0  0  0  0  0  0  0  0  0  0
    4.9930    0.4413   -0.2717 C   0  0  0  0  0  0  0  0  0  0  0  0
    4.4924   -0.3506   -1.4900 C   0  0  0  0  0  0  0  0  0  0  0  0
    3.8942   -1.6935   -1.1498 C   0  0  0  0  0  0  0  0  0  0  0  0
    2.6913   -1.7868   -0.4362 C   0  0  0  0  0  0  0  0  0  0  0  0
    2.1705   -3.0359   -0.0940 C   0  0  0  0  0  0  0  0  0  0  0  0
    2.8385   -4.1998   -0.4706 C   0  0  0  0  0  0  0  0  0  0  0  0
    4.0269   -4.1175   -1.1919 C   0  0  0  0  0  0  0  0  0  0  0  0
    4.5535   -2.8710   -1.5297 C   0  0  0  0  0  0  0  0  0  0  0  0
    6.1619   -0.2622    0.3937 C   0  0  0  0  0  0  0  0  0  0  0  0
    7.3239    0.1086    0.2645 O   0  0  0  0  0  0  0  0  0  0  0  0
    5.8254   -1.2829    1.2030 O   0  0  0  0  0  0  0  0  0  0  0  0
    7.4838    1.8399    0.6162 H   0  0  0  0  0  0  0  0  0  0  0  0
    6.3546    1.7817   -1.3780 H   0  0  0  0  0  0  0  0  0  0  0  0
    4.6874    2.3106   -1.3468 H   0  0  0  0  0  0  0  0  0  0  0  0
    4.2018    0.5720    0.4773 H   0  0  0  0  0  0  0  0  0  0  0  0
    5.3146   -0.4863   -2.2053 H   0  0  0  0  0  0  0  0  0  0  0  0
    3.7252    0.2277   -2.0220 H   0  0  0  0  0  0  0  0  0  0  0  0
    2.1462   -0.8907   -0.1451 H   0  0  0  0  0  0  0  0  0  0  0  0
    1.2371   -3.1047    0.4600 H   0  0  0  0  0  0  0  0  0  0  0  0
    2.4291   -5.1728   -0.2098 H   0  0  0  0  0  0  0  0  0  0  0  0
    4.5447   -5.0249   -1.4937 H   0  0  0  0  0  0  0  0  0  0  0  0
    5.4861   -2.8296   -2.0899 H   0  0  0  0  0  0  0  0  0  0  0  0
    4.8742   -1.5148    1.2103 H   0  0  0  0  0  0  0  0  0  0  0  0
  1  2  2  0  0  0  0
  2  3  1  0  0  0  0
  2  4  1  0  0  0  0
  3 16  1  0  0  0  0
  4  5  1  0  0  0  0
  4 17  1  0  0  0  0
  4 18  1  0  0  0  0
  5  6  1  0  0  0  0
  5 13  1  0  0  0  0
  5 19  1  0  0  0  0
  6  7  1  0  0  0  0
  6 20  1  0  0  0  0
  6 21  1  0  0  0  0
  7  8  1  0  0  0  0
  7 12  2  0  0  0  0
  8  9  2  0  0  0  0
  8 22  1  0  0  0  0
  9 10  1  0  0  0  0
  9 23  1  0  0  0  0
 10 11  2  0  0  0  0
 10 24  1  0  0  0  0
 11 12  1  0  0  0  0
 11 25  1  0  0  0  0
 12 26  1  0  0  0  0
 13 14  2  0  0  0  0
 13 15  1  0  0  0  0
 15 27  1  0  0  0  0
M  END
$$$$
