CHEBI:7438
 OpenBabel04242411093D

  9  8  0  0  0  0  0  0  0  0999 V2000
    1.0509   -0.0423   -0.0792 C   0  0  0  0  0  0  0  0  0  0  0  0
    2.4871   -0.0036   -0.0839 N   0  0  0  0  0  0  0  0  0  0  0  0
    3.2043    1.1462   -0.2313 C   0  0  0  0  0  0  0  0  0  0  0  0
    4.4264    1.1738   -0.2359 O   0  0  0  0  0  0  0  0  0  0  0  0
    0.7248   -1.0760    0.0544 H   0  0  0  0  0  0  0  0  0  0  0  0
    0.6786    0.3515   -1.0286 H   0  0  0  0  0  0  0  0  0  0  0  0
    0.6782    0.5800    0.7387 H   0  0  0  0  0  0  0  0  0  0  0  0
    3.0303   -0.8523    0.0231 H   0  0  0  0  0  0  0  0  0  0  0  0
    2.5815    2.0486   -0.3457 H   0  0  0  0  0  0  0  0  0  0  0  0
  1  2  1  0  0  0  0
  1  5  1  0  0  0  0
  1  6  1  0  0  0  0
  1  7  1  0  0  0  0
  2  3  1  0  0  0  0
  2  8  1  0  0  0  0
  3  4  2  0  0  0  0
  3  9  1  0  0  0  0
M  END
$$$$
