CHEBI:16435
 OpenBabel04242414253D

 73 75  0  0  1  0  0  0  0  0999 V2000
   -0.5068    7.3308    1.9608 C   0  0  0  0  0  0  0  0  0  0  0  0
    0.7885    7.6930    2.0077 C   0  0  0  0  0  0  0  0  0  0  0  0
    1.8626    6.9838    1.5075 O   0  0  0  0  0  0  0  0  0  0  0  0
    1.6982    5.7032    0.8717 C   0  0  1  0  0  0  0  0  0  0  0  0
    2.1284    5.8295   -0.6008 C   0  0  2  0  0  0  0  0  0  0  0  0
    1.2429    6.7407   -1.2549 O   0  0  0  0  0  0  0  0  0  0  0  0
    2.1205    4.4433   -1.2806 C   0  0  1  0  0  0  0  0  0  0  0  0
    2.7505    4.4646   -2.6843 C   0  0  0  0  0  0  0  0  0  0  0  0
    1.9591    5.1667   -3.6270 O   0  0  0  0  0  0  0  0  0  0  0  0
    2.8718    3.4812   -0.5207 O   0  0  0  0  0  0  0  0  0  0  0  0
    2.4360    3.3232    0.8314 C   0  0  0  0  0  0  0  0  0  0  0  0
    1.0842    2.9031    0.8974 O   0  0  0  0  0  0  0  0  0  0  0  0
    0.7844    1.3746    0.5255 P   0  0  0  0  0  0  0  0  0  0  0  0
    1.4687    0.3652    1.3790 O   0  0  0  0  0  0  0  0  0  0  0  0
   -0.8091    1.3329    0.7265 O   0  0  0  0  0  0  0  0  0  0  0  0
    0.9567    1.2916   -1.0402 O   0  0  0  0  0  0  0  0  0  0  0  0
    1.0120   -0.0238   -1.9108 P   0  0  0  0  0  0  0  0  0  0  0  0
    2.2142   -0.8948   -1.7643 O   0  0  0  0  0  0  0  0  0  0  0  0
   -0.3930   -0.7433   -1.6636 O   0  0  0  0  0  0  0  0  0  0  0  0
    0.8316    0.5358   -3.4080 O   0  0  0  0  0  0  0  0  0  0  0  0
    0.7888   -0.4007   -4.4689 C   0  0  0  0  0  0  0  0  0  0  0  0
    0.0908    0.2183   -5.6842 C   0  0  1  0  0  0  0  0  0  0  0  0
   -1.3470    0.1623   -5.4934 O   0  0  0  0  0  0  0  0  0  0  0  0
   -1.8578    1.5048   -5.5736 C   0  0  1  0  0  0  0  0  0  0  0  0
   -3.0372    1.6509   -4.7155 N   0  0  0  0  0  0  0  0  0  0  0  0
   -4.1888    2.1923   -5.2612 C   0  0  0  0  0  0  0  0  0  0  0  0
   -5.3074    2.3540   -4.5517 C   0  0  0  0  0  0  0  0  0  0  0  0
   -5.3166    1.9430   -3.1419 C   0  0  0  0  0  0  0  0  0  0  0  0
   -6.3322    2.0235   -2.4623 O   0  0  0  0  0  0  0  0  0  0  0  0
   -4.1310    1.4778   -2.6568 N   0  0  0  0  0  0  0  0  0  0  0  0
   -2.9730    1.3100   -3.3725 C   0  0  0  0  0  0  0  0  0  0  0  0
   -1.9787    0.8672   -2.7970 O   0  0  0  0  0  0  0  0  0  0  0  0
   -0.6919    2.4490   -5.2691 C   0  0  2  0  0  0  0  0  0  0  0  0
   -0.8628    3.7396   -5.8593 O   0  0  0  0  0  0  0  0  0  0  0  0
    0.4565    1.6888   -5.9218 C   0  0  2  0  0  0  0  0  0  0  0  0
    0.4300    1.9953   -7.3331 O   0  0  0  0  0  0  0  0  0  0  0  0
    2.5926    4.6692    1.5812 C   0  0  2  0  0  0  0  0  0  0  0  0
    2.2872    4.5907    3.0166 N   0  0  0  0  0  0  0  0  0  0  0  0
    3.1086    3.8811    3.8638 C   0  0  0  0  0  0  0  0  0  0  0  0
    2.7675    4.0307    5.3205 C   0  0  0  0  0  0  0  0  0  0  0  0
    4.0221    3.1659    3.4698 O   0  0  0  0  0  0  0  0  0  0  0  0
    1.1458    9.0044    2.6416 C   0  0  0  0  0  0  0  0  0  0  0  0
    2.2424    9.5316    2.5899 O   0  0  0  0  0  0  0  0  0  0  0  0
    0.1405    9.5790    3.3284 O   0  0  0  0  0  0  0  0  0  0  0  0
   -0.8742    6.4204    1.5077 H   0  0  0  0  0  0  0  0  0  0  0  0
   -1.2884    7.9646    2.3728 H   0  0  0  0  0  0  0  0  0  0  0  0
    0.6608    5.3668    0.9096 H   0  0  0  0  0  0  0  0  0  0  0  0
    3.1361    6.2620   -0.6486 H   0  0  0  0  0  0  0  0  0  0  0  0
    1.3932    7.6180   -0.8588 H   0  0  0  0  0  0  0  0  0  0  0  0
    1.0834    4.0997   -1.3876 H   0  0  0  0  0  0  0  0  0  0  0  0
    2.8736    3.4377   -3.0481 H   0  0  0  0  0  0  0  0  0  0  0  0
    3.7501    4.9127   -2.6484 H   0  0  0  0  0  0  0  0  0  0  0  0
    2.4555    5.2030   -4.4611 H   0  0  0  0  0  0  0  0  0  0  0  0
    3.0712    2.5570    1.2838 H   0  0  0  0  0  0  0  0  0  0  0  0
   -1.0195    1.0310    1.6295 H   0  0  0  0  0  0  0  0  0  0  0  0
   -1.1181   -0.1764   -2.0233 H   0  0  0  0  0  0  0  0  0  0  0  0
    0.2627   -1.3072   -4.1516 H   0  0  0  0  0  0  0  0  0  0  0  0
    1.8212   -0.6590   -4.7244 H   0  0  0  0  0  0  0  0  0  0  0  0
    0.3045   -0.3972   -6.5652 H   0  0  0  0  0  0  0  0  0  0  0  0
   -2.1768    1.6469   -6.6152 H   0  0  0  0  0  0  0  0  0  0  0  0
   -4.1570    2.4894   -6.3060 H   0  0  0  0  0  0  0  0  0  0  0  0
   -6.2175    2.7708   -4.9610 H   0  0  0  0  0  0  0  0  0  0  0  0
   -4.1132    1.2043   -1.6872 H   0  0  0  0  0  0  0  0  0  0  0  0
   -0.5307    2.5723   -4.1944 H   0  0  0  0  0  0  0  0  0  0  0  0
   -0.5092    3.6565   -6.7692 H   0  0  0  0  0  0  0  0  0  0  0  0
    1.4418    1.9851   -5.5503 H   0  0  0  0  0  0  0  0  0  0  0  0
    1.1612    1.5032   -7.7504 H   0  0  0  0  0  0  0  0  0  0  0  0
    3.6373    5.0024    1.5088 H   0  0  0  0  0  0  0  0  0  0  0  0
    1.7614    5.3581    3.4176 H   0  0  0  0  0  0  0  0  0  0  0  0
    3.6698    3.8766    5.9192 H   0  0  0  0  0  0  0  0  0  0  0  0
    2.0153    3.2869    5.5944 H   0  0  0  0  0  0  0  0  0  0  0  0
    2.3865    5.0335    5.5327 H   0  0  0  0  0  0  0  0  0  0  0  0
    0.5419   10.4031    3.6747 H   0  0  0  0  0  0  0  0  0  0  0  0
  1  2  2  0  0  0  0
  1 45  1  0  0  0  0
  1 46  1  0  0  0  0
  2  3  1  0  0  0  0
  2 42  1  0  0  0  0
  4  5  1  0  0  0  0
  4 37  1  0  0  0  0
  4  3  1  0  0  0  0
  4 47  1  1  0  0  0
  5  6  1  0  0  0  0
  5  7  1  0  0  0  0
  5 48  1  6  0  0  0
  6 49  1  0  0  0  0
  7  8  1  0  0  0  0
  7 10  1  0  0  0  0
  7 50  1  6  0  0  0
  8  9  1  0  0  0  0
  8 51  1  0  0  0  0
  8 52  1  0  0  0  0
  9 53  1  0  0  0  0
 10 11  1  0  0  0  0
 11 12  1  0  0  0  0
 11 37  1  0  0  0  0
 11 54  1  0  0  0  0
 12 13  1  0  0  0  0
 13 14  2  0  0  0  0
 13 15  1  0  0  0  0
 13 16  1  0  0  0  0
 15 55  1  0  0  0  0
 16 17  1  0  0  0  0
 17 18  2  0  0  0  0
 17 19  1  0  0  0  0
 17 20  1  0  0  0  0
 19 56  1  0  0  0  0
 20 21  1  0  0  0  0
 21 22  1  0  0  0  0
 21 57  1  0  0  0  0
 21 58  1  0  0  0  0
 22 23  1  0  0  0  0
 22 35  1  0  0  0  0
 22 59  1  6  0  0  0
 23 24  1  0  0  0  0
 24 25  1  0  0  0  0
 24 33  1  0  0  0  0
 24 60  1  6  0  0  0
 25 26  1  0  0  0  0
 25 31  1  0  0  0  0
 26 27  2  0  0  0  0
 26 61  1  0  0  0  0
 27 28  1  0  0  0  0
 27 62  1  0  0  0  0
 28 29  2  0  0  0  0
 28 30  1  0  0  0  0
 30 31  1  0  0  0  0
 30 63  1  0  0  0  0
 31 32  2  0  0  0  0
 33 34  1  0  0  0  0
 33 35  1  0  0  0  0
 33 64  1  1  0  0  0
 34 65  1  0  0  0  0
 35 36  1  0  0  0  0
 35 66  1  1  0  0  0
 36 67  1  0  0  0  0
 37 38  1  0  0  0  0
 37 68  1  6  0  0  0
 38 39  1  0  0  0  0
 38 69  1  0  0  0  0
 39 40  1  0  0  0  0
 39 41  2  0  0  0  0
 40 70  1  0  0  0  0
 40 71  1  0  0  0  0
 40 72  1  0  0  0  0
 42 43  2  0  0  0  0
 42 44  1  0  0  0  0
 44 73  1  0  0  0  0
M  END
$$$$
