CHEBI:18020
 OpenBabel04242423253D

 25 24  0  0  0  0  0  0  0  0999 V2000
    0.2003    0.0408    0.4598 C   0  0  0  0  0  0  0  0  0  0  0  0
    1.3429    0.9634    0.8809 N   0  3  0  0  0  0  0  0  0  0  0  0
    1.1346    2.3134    0.1858 C   0  0  0  0  0  0  0  0  0  0  0  0
    1.3024    1.1848    2.3846 C   0  0  0  0  0  0  0  0  0  0  0  0
    2.7023    0.4051    0.4157 C   0  0  0  0  0  0  0  0  0  0  0  0
    3.0768   -0.9294    1.0730 C   0  0  0  0  0  0  0  0  0  0  0  0
    4.3505   -1.5319    0.4706 C   0  0  0  0  0  0  0  0  0  0  0  0
    4.1300   -2.0578   -0.9276 C   0  0  0  0  0  0  0  0  0  0  0  0
    3.0945   -1.8588   -1.5571 O   0  0  0  0  0  0  0  0  0  0  0  0
   -0.7460    0.5477    0.6728 H   0  0  0  0  0  0  0  0  0  0  0  0
    0.2555   -0.8835    1.0394 H   0  0  0  0  0  0  0  0  0  0  0  0
    0.2931   -0.1622   -0.6108 H   0  0  0  0  0  0  0  0  0  0  0  0
    0.1710    2.7235    0.5027 H   0  0  0  0  0  0  0  0  0  0  0  0
    1.1425    2.1508   -0.8962 H   0  0  0  0  0  0  0  0  0  0  0  0
    1.9484    2.9824    0.4810 H   0  0  0  0  0  0  0  0  0  0  0  0
    0.3664    1.6933    2.6350 H   0  0  0  0  0  0  0  0  0  0  0  0
    2.1600    1.8026    2.6661 H   0  0  0  0  0  0  0  0  0  0  0  0
    1.3408    0.2154    2.8879 H   0  0  0  0  0  0  0  0  0  0  0  0
    3.4555    1.1632    0.6637 H   0  0  0  0  0  0  0  0  0  0  0  0
    2.6450    0.3336   -0.6742 H   0  0  0  0  0  0  0  0  0  0  0  0
    2.2658   -1.6583    0.9802 H   0  0  0  0  0  0  0  0  0  0  0  0
    3.2514   -0.7743    2.1435 H   0  0  0  0  0  0  0  0  0  0  0  0
    4.6738   -2.3802    1.0837 H   0  0  0  0  0  0  0  0  0  0  0  0
    5.1631   -0.7992    0.4442 H   0  0  0  0  0  0  0  0  0  0  0  0
    4.9757   -2.6109   -1.3719 H   0  0  0  0  0  0  0  0  0  0  0  0
  1  2  1  0  0  0  0
  1 10  1  0  0  0  0
  1 11  1  0  0  0  0
  1 12  1  0  0  0  0
  2  3  1  0  0  0  0
  2  4  1  0  0  0  0
  2  5  1  0  0  0  0
  3 13  1  0  0  0  0
  3 14  1  0  0  0  0
  3 15  1  0  0  0  0
  4 16  1  0  0  0  0
  4 17  1  0  0  0  0
  4 18  1  0  0  0  0
  5  6  1  0  0  0  0
  5 19  1  0  0  0  0
  5 20  1  0  0  0  0
  6  7  1  0  0  0  0
  6 21  1  0  0  0  0
  6 22  1  0  0  0  0
  7  8  1  0  0  0  0
  7 23  1  0  0  0  0
  7 24  1  0  0  0  0
  8  9  2  0  0  0  0
  8 25  1  0  0  0  0
M  CHG  1   2   1
M  END
$$$$
