CHEBI:16881
 OpenBabel04242415293D

 16 17  0  0  0  0  0  0  0  0999 V2000
    2.1857   -0.6760   -0.0085 C   0  0  0  0  0  0  0  0  0  0  0  0
    2.1452    0.7169   -0.0124 C   0  0  0  0  0  0  0  0  0  0  0  0
    0.9269    1.4032   -0.0152 C   0  0  0  0  0  0  0  0  0  0  0  0
   -0.2462    0.6393   -0.0144 C   0  0  0  0  0  0  0  0  0  0  0  0
   -1.5652    1.0340   -0.0168 N   0  0  0  0  0  0  0  0  0  0  0  0
   -2.3878   -0.0614   -0.0157 C   0  0  0  0  0  0  0  0  0  0  0  0
   -1.5924   -1.1846   -0.0117 C   0  0  0  0  0  0  0  0  0  0  0  0
   -0.2362   -0.7559   -0.0108 C   0  0  0  0  0  0  0  0  0  0  0  0
    1.0029   -1.4248   -0.0076 C   0  0  0  0  0  0  0  0  0  0  0  0
    3.1443   -1.1887   -0.0063 H   0  0  0  0  0  0  0  0  0  0  0  0
    3.0756    1.2802   -0.0132 H   0  0  0  0  0  0  0  0  0  0  0  0
    0.8994    2.4877   -0.0181 H   0  0  0  0  0  0  0  0  0  0  0  0
   -1.8744    1.9959   -0.0194 H   0  0  0  0  0  0  0  0  0  0  0  0
   -3.4634    0.0524   -0.0178 H   0  0  0  0  0  0  0  0  0  0  0  0
   -1.9449   -2.2075   -0.0098 H   0  0  0  0  0  0  0  0  0  0  0  0
    1.0424   -2.5098   -0.0046 H   0  0  0  0  0  0  0  0  0  0  0  0
  1  2  1  0  0  0  0
  1  9  2  0  0  0  0
  1 10  1  0  0  0  0
  2  3  2  0  0  0  0
  2 11  1  0  0  0  0
  3  4  1  0  0  0  0
  3 12  1  0  0  0  0
  4  5  1  0  0  0  0
  4  8  2  0  0  0  0
  5  6  1  0  0  0  0
  5 13  1  0  0  0  0
  6  7  2  0  0  0  0
  6 14  1  0  0  0  0
  7  8  1  0  0  0  0
  7 15  1  0  0  0  0
  8  9  1  0  0  0  0
  9 16  1  0  0  0  0
M  END
$$$$
