CHEBI:16222
 OpenBabel04242414013D

 22 21  0  0  1  0  0  0  0  0999 V2000
    7.4814   -2.5838   -1.7166 O   0  0  0  0  0  0  0  0  0  0  0  0
    7.8321   -2.0145   -0.6826 C   0  0  0  0  0  0  0  0  0  0  0  0
    7.1177   -2.2446    0.6359 C   0  0  1  0  0  0  0  0  0  0  0  0
    6.3901   -3.4951    0.4936 O   0  0  0  0  0  0  0  0  0  0  0  0
    6.0695   -1.1806    0.9981 C   0  0  2  0  0  0  0  0  0  0  0  0
    5.1282   -1.7917    1.9304 O   0  0  0  0  0  0  0  0  0  0  0  0
    6.5835    0.0847    1.7213 C   0  0  2  0  0  0  0  0  0  0  0  0
    5.4693    0.7042    2.3944 O   0  0  0  0  0  0  0  0  0  0  0  0
    7.2544    1.1492    0.8548 C   0  0  1  0  0  0  0  0  0  0  0  0
    8.4770    0.6640    0.3193 O   0  0  0  0  0  0  0  0  0  0  0  0
    6.3145    1.6181   -0.2454 C   0  0  0  0  0  0  0  0  0  0  0  0
    6.6512    1.6360   -1.4283 O   0  0  0  0  0  0  0  0  0  0  0  0
    8.7161   -1.3634   -0.6676 H   0  0  0  0  0  0  0  0  0  0  0  0
    7.8470   -2.4021    1.4349 H   0  0  0  0  0  0  0  0  0  0  0  0
    6.3712   -3.6930   -0.4699 H   0  0  0  0  0  0  0  0  0  0  0  0
    5.4653   -0.9158    0.1236 H   0  0  0  0  0  0  0  0  0  0  0  0
    5.0763   -2.7334    1.6495 H   0  0  0  0  0  0  0  0  0  0  0  0
    7.2790   -0.2275    2.5104 H   0  0  0  0  0  0  0  0  0  0  0  0
    4.9392   -0.0538    2.7319 H   0  0  0  0  0  0  0  0  0  0  0  0
    7.4790    2.0346    1.4610 H   0  0  0  0  0  0  0  0  0  0  0  0
    8.6948    1.2609   -0.4282 H   0  0  0  0  0  0  0  0  0  0  0  0
    5.3284    1.9921    0.0795 H   0  0  0  0  0  0  0  0  0  0  0  0
  1  2  2  0  0  0  0
  2  3  1  0  0  0  0
  2 13  1  0  0  0  0
  3  4  1  0  0  0  0
  3 14  1  6  0  0  0
  4 15  1  0  0  0  0
  5  6  1  0  0  0  0
  5  3  1  0  0  0  0
  5 16  1  1  0  0  0
  6 17  1  0  0  0  0
  7  9  1  0  0  0  0
  7  8  1  0  0  0  0
  7  5  1  0  0  0  0
  7 18  1  1  0  0  0
  8 19  1  0  0  0  0
  9 10  1  0  0  0  0
  9 11  1  0  0  0  0
  9 20  1  1  0  0  0
 10 21  1  0  0  0  0
 11 12  2  0  0  0  0
 11 22  1  0  0  0  0
M  END
$$$$
