CHEBI:17258
 OpenBabel04242416063D

 13 14  0  0  0  0  0  0  0  0999 V2000
    1.9641    0.7054   -0.0058 C   0  0  0  0  0  0  0  0  0  0  0  0
    2.1054   -0.6394   -0.0028 N   0  0  0  0  0  0  0  0  0  0  0  0
    0.9885   -1.3955   -0.0040 C   0  0  0  0  0  0  0  0  0  0  0  0
   -0.2226   -0.7423   -0.0084 C   0  0  0  0  0  0  0  0  0  0  0  0
   -1.5313   -1.1347   -0.0116 N   0  0  0  0  0  0  0  0  0  0  0  0
   -2.2995   -0.0016   -0.0163 C   0  0  0  0  0  0  0  0  0  0  0  0
   -1.5633    1.0873   -0.0157 N   0  0  0  0  0  0  0  0  0  0  0  0
   -0.2690    0.6411   -0.0111 C   0  0  0  0  0  0  0  0  0  0  0  0
    0.8290    1.4178   -0.0097 N   0  0  0  0  0  0  0  0  0  0  0  0
    2.8862    1.2790   -0.0052 H   0  0  0  0  0  0  0  0  0  0  0  0
    1.1078   -2.4708   -0.0017 H   0  0  0  0  0  0  0  0  0  0  0  0
   -1.8767   -2.0841   -0.0112 H   0  0  0  0  0  0  0  0  0  0  0  0
   -3.3815   -0.0332   -0.0201 H   0  0  0  0  0  0  0  0  0  0  0  0
  1  2  1  0  0  0  0
  1  9  2  0  0  0  0
  1 10  1  0  0  0  0
  2  3  2  0  0  0  0
  3  4  1  0  0  0  0
  3 11  1  0  0  0  0
  4  5  1  0  0  0  0
  4  8  2  0  0  0  0
  5  6  1  0  0  0  0
  5 12  1  0  0  0  0
  6  7  2  0  0  0  0
  6 13  1  0  0  0  0
  7  8  1  0  0  0  0
  8  9  1  0  0  0  0
M  END
$$$$
