CHEBI:3238
 OpenBabel04242410463D

 51 53  0  0  0  0  0  0  0  0999 V2000
    3.8643    0.2845   -5.0125 C   0  0  0  0  0  0  0  0  0  0  0  0
    2.5893    0.3512   -4.3032 N   0  0  0  0  0  0  0  0  0  0  0  0
    2.2236    1.7222   -3.9063 C   0  0  0  0  0  0  0  0  0  0  0  0
    2.1134    2.7489   -5.0149 C   0  0  0  0  0  0  0  0  0  0  0  0
    0.9104    2.9596   -5.6940 C   0  0  0  0  0  0  0  0  0  0  0  0
    0.8370    3.8776   -6.7491 C   0  0  0  0  0  0  0  0  0  0  0  0
    1.9564    4.6291   -7.1540 C   0  0  0  0  0  0  0  0  0  0  0  0
    1.8674    5.5844   -8.3574 C   0  0  0  0  0  0  0  0  0  0  0  0
    0.6100    6.4783   -8.2723 C   0  0  0  0  0  0  0  0  0  0  0  0
    3.0798    6.5359   -8.4833 C   0  0  0  0  0  0  0  0  0  0  0  0
    1.7976    4.7377   -9.6449 C   0  0  0  0  0  0  0  0  0  0  0  0
    3.1524    4.4218   -6.4494 C   0  0  0  0  0  0  0  0  0  0  0  0
    3.2286    3.5026   -5.3967 C   0  0  0  0  0  0  0  0  0  0  0  0
    1.5046   -0.3347   -5.0199 C   0  0  0  0  0  0  0  0  0  0  0  0
    1.7392   -1.8214   -5.2599 C   0  0  0  0  0  0  0  0  0  0  0  0
    1.8327   -2.2572   -6.5965 C   0  0  0  0  0  0  0  0  0  0  0  0
    2.0280   -3.5997   -6.9002 C   0  0  0  0  0  0  0  0  0  0  0  0
    2.1347   -4.5321   -5.8735 C   0  0  0  0  0  0  0  0  0  0  0  0
    2.0498   -4.1375   -4.5306 C   0  0  0  0  0  0  0  0  0  0  0  0
    2.1664   -5.0977   -3.5114 C   0  0  0  0  0  0  0  0  0  0  0  0
    2.0912   -4.7330   -2.1688 C   0  0  0  0  0  0  0  0  0  0  0  0
    1.8950   -3.4019   -1.8287 C   0  0  0  0  0  0  0  0  0  0  0  0
    1.7723   -2.4366   -2.8316 C   0  0  0  0  0  0  0  0  0  0  0  0
    1.8484   -2.7713   -4.2032 C   0  0  0  0  0  0  0  0  0  0  0  0
    4.6403    0.8353   -4.4690 H   0  0  0  0  0  0  0  0  0  0  0  0
    3.8016    0.6832   -6.0309 H   0  0  0  0  0  0  0  0  0  0  0  0
    4.2255   -0.7474   -5.0768 H   0  0  0  0  0  0  0  0  0  0  0  0
    2.9592    2.0790   -3.1724 H   0  0  0  0  0  0  0  0  0  0  0  0
    1.2804    1.7020   -3.3433 H   0  0  0  0  0  0  0  0  0  0  0  0
    0.0195    2.3997   -5.4188 H   0  0  0  0  0  0  0  0  0  0  0  0
   -0.1152    3.9806   -7.2642 H   0  0  0  0  0  0  0  0  0  0  0  0
    0.5899    7.0434   -7.3332 H   0  0  0  0  0  0  0  0  0  0  0  0
   -0.3187    5.9016   -8.3346 H   0  0  0  0  0  0  0  0  0  0  0  0
    0.5835    7.2008   -9.0970 H   0  0  0  0  0  0  0  0  0  0  0  0
    3.2127    7.1360   -7.5756 H   0  0  0  0  0  0  0  0  0  0  0  0
    2.9514    7.2318   -9.3211 H   0  0  0  0  0  0  0  0  0  0  0  0
    4.0110    5.9892   -8.6708 H   0  0  0  0  0  0  0  0  0  0  0  0
    0.9130    4.0907   -9.6595 H   0  0  0  0  0  0  0  0  0  0  0  0
    2.6777    4.0903   -9.7411 H   0  0  0  0  0  0  0  0  0  0  0  0
    1.7534    5.3739  -10.5362 H   0  0  0  0  0  0  0  0  0  0  0  0
    4.0624    4.9560   -6.7073 H   0  0  0  0  0  0  0  0  0  0  0  0
    4.1795    3.3678   -4.8851 H   0  0  0  0  0  0  0  0  0  0  0  0
    1.3140    0.1582   -5.9815 H   0  0  0  0  0  0  0  0  0  0  0  0
    0.5678   -0.2523   -4.4523 H   0  0  0  0  0  0  0  0  0  0  0  0
    1.7541   -1.5425   -7.4134 H   0  0  0  0  0  0  0  0  0  0  0  0
    2.0975   -3.9202   -7.9362 H   0  0  0  0  0  0  0  0  0  0  0  0
    2.2881   -5.5777   -6.1313 H   0  0  0  0  0  0  0  0  0  0  0  0
    2.3217   -6.1456   -3.7590 H   0  0  0  0  0  0  0  0  0  0  0  0
    2.1891   -5.4871   -1.3929 H   0  0  0  0  0  0  0  0  0  0  0  0
    1.8418   -3.1067   -0.7844 H   0  0  0  0  0  0  0  0  0  0  0  0
    1.6293   -1.4036   -2.5241 H   0  0  0  0  0  0  0  0  0  0  0  0
  1  2  1  0  0  0  0
  1 25  1  0  0  0  0
  1 26  1  0  0  0  0
  1 27  1  0  0  0  0
  2  3  1  0  0  0  0
  2 14  1  0  0  0  0
  3  4  1  0  0  0  0
  3 28  1  0  0  0  0
  3 29  1  0  0  0  0
  4  5  1  0  0  0  0
  4 13  2  0  0  0  0
  5  6  2  0  0  0  0
  5 30  1  0  0  0  0
  6  7  1  0  0  0  0
  6 31  1  0  0  0  0
  7  8  1  0  0  0  0
  7 12  2  0  0  0  0
  8  9  1  0  0  0  0
  8 10  1  0  0  0  0
  8 11  1  0  0  0  0
  9 32  1  0  0  0  0
  9 33  1  0  0  0  0
  9 34  1  0  0  0  0
 10 35  1  0  0  0  0
 10 36  1  0  0  0  0
 10 37  1  0  0  0  0
 11 38  1  0  0  0  0
 11 39  1  0  0  0  0
 11 40  1  0  0  0  0
 12 13  1  0  0  0  0
 12 41  1  0  0  0  0
 13 42  1  0  0  0  0
 14 15  1  0  0  0  0
 14 43  1  0  0  0  0
 14 44  1  0  0  0  0
 15 16  1  0  0  0  0
 15 24  2  0  0  0  0
 16 17  2  0  0  0  0
 16 45  1  0  0  0  0
 17 18  1  0  0  0  0
 17 46  1  0  0  0  0
 18 19  2  0  0  0  0
 18 47  1  0  0  0  0
 19 20  1  0  0  0  0
 19 24  1  0  0  0  0
 20 21  2  0  0  0  0
 20 48  1  0  0  0  0
 21 22  1  0  0  0  0
 21 49  1  0  0  0  0
 22 23  2  0  0  0  0
 22 50  1  0  0  0  0
 23 24  1  0  0  0  0
 23 51  1  0  0  0  0
M  END
$$$$
