CHEBI:15999
 OpenBabel04242413363D

 21 21  0  0  0  0  0  0  0  0999 V2000
    3.5300   -2.8378    1.1672 O   0  0  0  0  0  0  0  0  0  0  0  0
    2.9908   -1.7506    1.1432 C   0  0  0  0  0  0  0  0  0  0  0  0
    1.6643   -1.5284    1.0669 O   0  0  0  0  0  0  0  0  0  0  0  0
    3.7501   -0.4281    1.1723 C   0  0  0  0  0  0  0  0  0  0  0  0
    3.0901    0.6031    1.0574 O   0  0  0  0  0  0  0  0  0  0  0  0
    5.2357   -0.4957    1.3914 C   0  0  0  0  0  0  0  0  0  0  0  0
    5.5941   -0.5105    2.8537 C   0  0  0  0  0  0  0  0  0  0  0  0
    5.7475   -1.7258    3.5374 C   0  0  0  0  0  0  0  0  0  0  0  0
    6.0518   -1.7391    4.9006 C   0  0  0  0  0  0  0  0  0  0  0  0
    6.1997   -0.5352    5.5806 C   0  0  0  0  0  0  0  0  0  0  0  0
    6.4962   -0.5019    6.9108 O   0  0  0  0  0  0  0  0  0  0  0  0
    6.0453    0.6778    4.9214 C   0  0  0  0  0  0  0  0  0  0  0  0
    5.7386    0.6921    3.5601 C   0  0  0  0  0  0  0  0  0  0  0  0
    1.5000   -0.5551    1.0512 H   0  0  0  0  0  0  0  0  0  0  0  0
    5.6916    0.3734    0.9010 H   0  0  0  0  0  0  0  0  0  0  0  0
    5.6517   -1.3679    0.8743 H   0  0  0  0  0  0  0  0  0  0  0  0
    5.6291   -2.6742    3.0145 H   0  0  0  0  0  0  0  0  0  0  0  0
    6.1661   -2.6914    5.4090 H   0  0  0  0  0  0  0  0  0  0  0  0
    6.5720   -1.4147    7.2340 H   0  0  0  0  0  0  0  0  0  0  0  0
    6.1607    1.6103    5.4667 H   0  0  0  0  0  0  0  0  0  0  0  0
    5.6125    1.6493    3.0578 H   0  0  0  0  0  0  0  0  0  0  0  0
  1  2  2  0  0  0  0
  2  3  1  0  0  0  0
  2  4  1  0  0  0  0
  3 14  1  0  0  0  0
  4  5  2  0  0  0  0
  4  6  1  0  0  0  0
  6  7  1  0  0  0  0
  6 15  1  0  0  0  0
  6 16  1  0  0  0  0
  7  8  1  0  0  0  0
  7 13  2  0  0  0  0
  8  9  2  0  0  0  0
  8 17  1  0  0  0  0
  9 10  1  0  0  0  0
  9 18  1  0  0  0  0
 10 11  1  0  0  0  0
 10 12  2  0  0  0  0
 11 19  1  0  0  0  0
 12 13  1  0  0  0  0
 12 20  1  0  0  0  0
 13 21  1  0  0  0  0
M  END
$$$$
