CHEBI:16285
 OpenBabel04242414073D

 62 61  0  0  0  0  0  0  0  0999 V2000
    0.4276   -0.4641   10.5856 C   0  0  0  0  0  0  0  0  0  0  0  0
    0.8170   -1.8801   11.0141 C   0  0  0  0  0  0  0  0  0  0  0  0
   -0.2845   -2.8614   10.6022 C   0  0  0  0  0  0  0  0  0  0  0  0
    2.1610   -2.3252   10.4063 C   0  0  0  0  0  0  0  0  0  0  0  0
    3.3592   -1.4892   10.8727 C   0  0  0  0  0  0  0  0  0  0  0  0
    4.7096   -2.0211   10.3625 C   0  0  0  0  0  0  0  0  0  0  0  0
    4.8641   -2.0536    8.8284 C   0  0  0  0  0  0  0  0  0  0  0  0
    4.7850   -0.6549    8.2122 C   0  0  0  0  0  0  0  0  0  0  0  0
    6.1390   -2.8038    8.3862 C   0  0  0  0  0  0  0  0  0  0  0  0
    7.4788   -2.1722    8.7878 C   0  0  0  0  0  0  0  0  0  0  0  0
    8.6405   -2.9916    8.2029 C   0  0  0  0  0  0  0  0  0  0  0  0
   10.0610   -2.4694    8.5078 C   0  0  0  0  0  0  0  0  0  0  0  0
   10.2582   -1.0440    7.9843 C   0  0  0  0  0  0  0  0  0  0  0  0
   10.4105   -2.6048   10.0040 C   0  0  0  0  0  0  0  0  0  0  0  0
   11.8682   -2.2428   10.3190 C   0  0  0  0  0  0  0  0  0  0  0  0
   12.1835   -2.4262   11.8078 C   0  0  0  0  0  0  0  0  0  0  0  0
   13.6284   -2.0403   12.1962 C   0  0  0  0  0  0  0  0  0  0  0  0
   13.9234   -0.5640   11.9016 C   0  0  0  0  0  0  0  0  0  0  0  0
   13.8457   -2.3518   13.6866 C   0  0  0  0  0  0  0  0  0  0  0  0
   15.2743   -2.1522   14.1114 C   0  0  0  0  0  0  0  0  0  0  0  0
   16.2189   -2.8733   13.8359 O   0  0  0  0  0  0  0  0  0  0  0  0
   15.4516   -1.0271   14.8295 O   0  0  0  0  0  0  0  0  0  0  0  0
    0.4124   -0.3698    9.4944 H   0  0  0  0  0  0  0  0  0  0  0  0
    1.1260    0.2785   10.9826 H   0  0  0  0  0  0  0  0  0  0  0  0
   -0.5685   -0.2043   10.9600 H   0  0  0  0  0  0  0  0  0  0  0  0
    0.8963   -1.9012   12.1082 H   0  0  0  0  0  0  0  0  0  0  0  0
   -0.4019   -2.8929    9.5133 H   0  0  0  0  0  0  0  0  0  0  0  0
   -1.2473   -2.5739   11.0378 H   0  0  0  0  0  0  0  0  0  0  0  0
   -0.0525   -3.8745   10.9471 H   0  0  0  0  0  0  0  0  0  0  0  0
    2.0801   -2.2868    9.3141 H   0  0  0  0  0  0  0  0  0  0  0  0
    2.3425   -3.3740   10.6742 H   0  0  0  0  0  0  0  0  0  0  0  0
    3.3860   -1.4897   11.9697 H   0  0  0  0  0  0  0  0  0  0  0  0
    3.2406   -0.4448   10.5676 H   0  0  0  0  0  0  0  0  0  0  0  0
    4.8562   -3.0328   10.7614 H   0  0  0  0  0  0  0  0  0  0  0  0
    5.5014   -1.3987   10.7976 H   0  0  0  0  0  0  0  0  0  0  0  0
    4.0330   -2.6359    8.4123 H   0  0  0  0  0  0  0  0  0  0  0  0
    3.7856   -0.2264    8.3397 H   0  0  0  0  0  0  0  0  0  0  0  0
    4.9842   -0.6913    7.1360 H   0  0  0  0  0  0  0  0  0  0  0  0
    5.5038    0.0312    8.6709 H   0  0  0  0  0  0  0  0  0  0  0  0
    6.1113   -2.9033    7.2929 H   0  0  0  0  0  0  0  0  0  0  0  0
    6.0971   -3.8262    8.7840 H   0  0  0  0  0  0  0  0  0  0  0  0
    7.5586   -2.1349    9.8784 H   0  0  0  0  0  0  0  0  0  0  0  0
    7.5290   -1.1445    8.4152 H   0  0  0  0  0  0  0  0  0  0  0  0
    8.5214   -3.0346    7.1119 H   0  0  0  0  0  0  0  0  0  0  0  0
    8.5625   -4.0276    8.5571 H   0  0  0  0  0  0  0  0  0  0  0  0
   10.7521   -3.1163    7.9496 H   0  0  0  0  0  0  0  0  0  0  0  0
    9.7556   -0.3077    8.6195 H   0  0  0  0  0  0  0  0  0  0  0  0
    9.8686   -0.9431    6.9658 H   0  0  0  0  0  0  0  0  0  0  0  0
   11.3210   -0.7840    7.9458 H   0  0  0  0  0  0  0  0  0  0  0  0
   10.2262   -3.6393   10.3206 H   0  0  0  0  0  0  0  0  0  0  0  0
    9.7497   -1.9667   10.6024 H   0  0  0  0  0  0  0  0  0  0  0  0
   12.0414   -1.2017   10.0358 H   0  0  0  0  0  0  0  0  0  0  0  0
   12.5440   -2.8656    9.7210 H   0  0  0  0  0  0  0  0  0  0  0  0
   12.0123   -3.4774   12.0737 H   0  0  0  0  0  0  0  0  0  0  0  0
   11.4768   -1.8332   12.4025 H   0  0  0  0  0  0  0  0  0  0  0  0
   14.3253   -2.6482   11.6044 H   0  0  0  0  0  0  0  0  0  0  0  0
   13.8526   -0.3458   10.8323 H   0  0  0  0  0  0  0  0  0  0  0  0
   14.9400   -0.2917   12.2026 H   0  0  0  0  0  0  0  0  0  0  0  0
   13.2253    0.0917   12.4326 H   0  0  0  0  0  0  0  0  0  0  0  0
   13.5914   -3.3957   13.9081 H   0  0  0  0  0  0  0  0  0  0  0  0
   13.1898   -1.7376   14.3156 H   0  0  0  0  0  0  0  0  0  0  0  0
   16.4156   -1.0021   15.0036 H   0  0  0  0  0  0  0  0  0  0  0  0
  1  2  1  0  0  0  0
  1 23  1  0  0  0  0
  1 24  1  0  0  0  0
  1 25  1  0  0  0  0
  2  3  1  0  0  0  0
  2  4  1  0  0  0  0
  2 26  1  0  0  0  0
  3 27  1  0  0  0  0
  3 28  1  0  0  0  0
  3 29  1  0  0  0  0
  4  5  1  0  0  0  0
  4 30  1  0  0  0  0
  4 31  1  0  0  0  0
  5  6  1  0  0  0  0
  5 32  1  0  0  0  0
  5 33  1  0  0  0  0
  6  7  1  0  0  0  0
  6 34  1  0  0  0  0
  6 35  1  0  0  0  0
  7  8  1  0  0  0  0
  7  9  1  0  0  0  0
  7 36  1  0  0  0  0
  8 37  1  0  0  0  0
  8 38  1  0  0  0  0
  8 39  1  0  0  0  0
  9 10  1  0  0  0  0
  9 40  1  0  0  0  0
  9 41  1  0  0  0  0
 10 11  1  0  0  0  0
 10 42  1  0  0  0  0
 10 43  1  0  0  0  0
 11 12  1  0  0  0  0
 11 44  1  0  0  0  0
 11 45  1  0  0  0  0
 12 13  1  0  0  0  0
 12 14  1  0  0  0  0
 12 46  1  0  0  0  0
 13 47  1  0  0  0  0
 13 48  1  0  0  0  0
 13 49  1  0  0  0  0
 14 15  1  0  0  0  0
 14 50  1  0  0  0  0
 14 51  1  0  0  0  0
 15 16  1  0  0  0  0
 15 52  1  0  0  0  0
 15 53  1  0  0  0  0
 16 17  1  0  0  0  0
 16 54  1  0  0  0  0
 16 55  1  0  0  0  0
 17 18  1  0  0  0  0
 17 19  1  0  0  0  0
 17 56  1  0  0  0  0
 18 57  1  0  0  0  0
 18 58  1  0  0  0  0
 18 59  1  0  0  0  0
 19 20  1  0  0  0  0
 19 60  1  0  0  0  0
 19 61  1  0  0  0  0
 20 21  2  0  0  0  0
 20 22  1  0  0  0  0
 22 62  1  0  0  0  0
M  END
$$$$
