CHEBI:8232
 OpenBabel04242411133D

 63 66  0  0  1  0  0  0  0  0999 V2000
    8.7852    4.1588   -0.8986 C   0  0  0  0  0  0  0  0  0  0  0  0
    7.7462    3.0711   -0.6803 C   0  0  0  0  0  0  0  0  0  0  0  0
    7.1810    2.5868   -1.9346 N   0  0  0  0  0  0  0  0  0  0  0  0
    7.9469    1.6602   -2.7441 C   0  0  0  0  0  0  0  0  0  0  0  0
    7.0025    0.8003   -3.5668 C   0  0  0  0  0  0  0  0  0  0  0  0
    6.1448    1.6124   -4.4182 N   0  0  0  0  0  0  0  0  0  0  0  0
    5.5837    0.9629   -5.5081 C   0  0  0  0  0  0  0  0  0  0  0  0
    5.7021   -0.2491   -5.6931 O   0  0  0  0  0  0  0  0  0  0  0  0
    4.8289    1.7165   -6.3501 N   0  0  0  0  0  0  0  0  0  0  0  0
    4.1540    1.1831   -7.5310 C   0  0  1  0  0  0  0  0  0  0  0  0
    2.7988    0.5091   -7.1605 C   0  0  0  0  0  0  0  0  0  0  0  0
    1.7422    0.6926   -7.7629 O   0  0  0  0  0  0  0  0  0  0  0  0
    2.8821   -0.4501   -6.1642 N   0  0  0  0  0  0  0  0  0  0  0  0
    1.6787   -1.1664   -5.6745 C   0  0  2  0  0  0  0  0  0  0  0  0
    1.0007   -0.5730   -4.4105 C   0  0  0  0  0  0  0  0  0  0  0  0
    0.6344    0.5009   -3.9971 O   0  0  0  0  0  0  0  0  0  0  0  0
    1.1003   -1.7610   -3.7240 N   0  0  0  0  0  0  0  0  0  0  0  0
    1.9016   -2.4087   -4.7876 C   0  0  2  0  0  0  0  0  0  0  0  0
    3.5539   -2.6540   -4.0418 S   0  0  0  0  0  0  0  0  0  0  0  0
    2.8376   -2.7485   -2.3314 C   0  0  0  0  0  0  0  0  0  0  0  0
    3.9274   -2.3567   -1.3307 C   0  0  0  0  0  0  0  0  0  0  0  0
    2.3886   -4.1975   -2.0954 C   0  0  0  0  0  0  0  0  0  0  0  0
    1.6865   -1.7258   -2.3725 C   0  0  2  0  0  0  0  0  0  0  0  0
    0.6302   -1.9420   -1.2880 C   0  0  0  0  0  0  0  0  0  0  0  0
    0.8912   -2.1030   -0.1044 O   0  0  0  0  0  0  0  0  0  0  0  0
   -0.6433   -1.9152   -1.7462 O   0  0  0  0  0  0  0  0  0  0  0  0
    4.0311    2.2751   -8.5804 C   0  0  0  0  0  0  0  0  0  0  0  0
    4.8044    2.2134   -9.7515 C   0  0  0  0  0  0  0  0  0  0  0  0
    4.7193    3.2201  -10.7155 C   0  0  0  0  0  0  0  0  0  0  0  0
    3.8670    4.3042  -10.5196 C   0  0  0  0  0  0  0  0  0  0  0  0
    3.1007    4.3849   -9.3591 C   0  0  0  0  0  0  0  0  0  0  0  0
    3.1840    3.3802   -8.3934 C   0  0  0  0  0  0  0  0  0  0  0  0
    5.6777    2.8437   -3.9371 C   0  0  0  0  0  0  0  0  0  0  0  0
    5.0004    3.6242   -4.6017 O   0  0  0  0  0  0  0  0  0  0  0  0
    6.0957    3.2573   -2.5014 C   0  0  0  0  0  0  0  0  0  0  0  0
    5.4704    4.1380   -1.9250 O   0  0  0  0  0  0  0  0  0  0  0  0
    9.1780    4.5066    0.0617 H   0  0  0  0  0  0  0  0  0  0  0  0
    8.3532    5.0172   -1.4233 H   0  0  0  0  0  0  0  0  0  0  0  0
    9.6241    3.7889   -1.4968 H   0  0  0  0  0  0  0  0  0  0  0  0
    6.9390    3.4671   -0.0538 H   0  0  0  0  0  0  0  0  0  0  0  0
    8.1842    2.2211   -0.1459 H   0  0  0  0  0  0  0  0  0  0  0  0
    8.5531    1.0230   -2.0921 H   0  0  0  0  0  0  0  0  0  0  0  0
    8.6129    2.2443   -3.3895 H   0  0  0  0  0  0  0  0  0  0  0  0
    6.3491    0.2084   -2.9133 H   0  0  0  0  0  0  0  0  0  0  0  0
    7.5849    0.1029   -4.1799 H   0  0  0  0  0  0  0  0  0  0  0  0
    4.6159    2.6750   -6.0755 H   0  0  0  0  0  0  0  0  0  0  0  0
    4.7756    0.3726   -7.9357 H   0  0  0  0  0  0  0  0  0  0  0  0
    3.8099   -0.6864   -5.8068 H   0  0  0  0  0  0  0  0  0  0  0  0
    0.9600   -1.3541   -6.4819 H   0  0  0  0  0  0  0  0  0  0  0  0
    1.4289   -3.3259   -5.1530 H   0  0  0  0  0  0  0  0  0  0  0  0
    4.7846   -3.0384   -1.3801 H   0  0  0  0  0  0  0  0  0  0  0  0
    3.5474   -2.3914   -0.3039 H   0  0  0  0  0  0  0  0  0  0  0  0
    4.2968   -1.3396   -1.5064 H   0  0  0  0  0  0  0  0  0  0  0  0
    3.2193   -4.9014   -2.2264 H   0  0  0  0  0  0  0  0  0  0  0  0
    1.5830   -4.4989   -2.7743 H   0  0  0  0  0  0  0  0  0  0  0  0
    2.0199   -4.3363   -1.0732 H   0  0  0  0  0  0  0  0  0  0  0  0
    2.0764   -0.7111   -2.2062 H   0  0  0  0  0  0  0  0  0  0  0  0
   -0.6688   -1.6843   -2.6986 H   0  0  0  0  0  0  0  0  0  0  0  0
    5.4805    1.3788   -9.9239 H   0  0  0  0  0  0  0  0  0  0  0  0
    5.3181    3.1581  -11.6205 H   0  0  0  0  0  0  0  0  0  0  0  0
    3.7981    5.0861  -11.2711 H   0  0  0  0  0  0  0  0  0  0  0  0
    2.4331    5.2289   -9.2051 H   0  0  0  0  0  0  0  0  0  0  0  0
    2.5701    3.4607   -7.4977 H   0  0  0  0  0  0  0  0  0  0  0  0
  1  2  1  0  0  0  0
  1 37  1  0  0  0  0
  1 38  1  0  0  0  0
  1 39  1  0  0  0  0
  2  3  1  0  0  0  0
  2 40  1  0  0  0  0
  2 41  1  0  0  0  0
  3  4  1  0  0  0  0
  3 35  1  0  0  0  0
  4  5  1  0  0  0  0
  4 42  1  0  0  0  0
  4 43  1  0  0  0  0
  5  6  1  0  0  0  0
  5 44  1  0  0  0  0
  5 45  1  0  0  0  0
  6  7  1  0  0  0  0
  6 33  1  0  0  0  0
  7  8  2  0  0  0  0
  7  9  1  0  0  0  0
  9 10  1  0  0  0  0
  9 46  1  0  0  0  0
 10 11  1  0  0  0  0
 10 27  1  0  0  0  0
 10 47  1  6  0  0  0
 11 12  2  0  0  0  0
 11 13  1  0  0  0  0
 13 14  1  0  0  0  0
 13 48  1  0  0  0  0
 14 15  1  0  0  0  0
 14 18  1  0  0  0  0
 14 49  1  6  0  0  0
 15 16  2  0  0  0  0
 15 17  1  0  0  0  0
 17 18  1  0  0  0  0
 17 23  1  0  0  0  0
 18 19  1  0  0  0  0
 18 50  1  6  0  0  0
 19 20  1  0  0  0  0
 20 21  1  0  0  0  0
 20 22  1  0  0  0  0
 20 23  1  0  0  0  0
 21 51  1  0  0  0  0
 21 52  1  0  0  0  0
 21 53  1  0  0  0  0
 22 54  1  0  0  0  0
 22 55  1  0  0  0  0
 22 56  1  0  0  0  0
 23 24  1  0  0  0  0
 23 57  1  1  0  0  0
 24 25  2  0  0  0  0
 24 26  1  0  0  0  0
 26 58  1  0  0  0  0
 27 28  1  0  0  0  0
 27 32  2  0  0  0  0
 28 29  2  0  0  0  0
 28 59  1  0  0  0  0
 29 30  1  0  0  0  0
 29 60  1  0  0  0  0
 30 31  2  0  0  0  0
 30 61  1  0  0  0  0
 31 32  1  0  0  0  0
 31 62  1  0  0  0  0
 32 63  1  0  0  0  0
 33 34  2  0  0  0  0
 33 35  1  0  0  0  0
 35 36  2  0  0  0  0
M  END
$$$$
