CHEBI:16598
 OpenBabel04242414523D

 26 27  0  0  0  0  0  0  0  0999 V2000
    1.5142   -2.9981    0.3320 Cl  0  0  0  0  0  0  0  0  0  0  0  0
    3.0968   -2.2960    0.1464 C   0  0  0  0  0  0  0  0  0  0  0  0
    4.2145   -2.7042    1.4176 Cl  0  0  0  0  0  0  0  0  0  0  0  0
    3.4300   -1.5012   -0.8977 C   0  0  0  0  0  0  0  0  0  0  0  0
    2.4271   -1.1949   -1.9466 C   0  0  0  0  0  0  0  0  0  0  0  0
    1.5868   -0.0803   -1.8175 C   0  0  0  0  0  0  0  0  0  0  0  0
    0.6456    0.2094   -2.8085 C   0  0  0  0  0  0  0  0  0  0  0  0
    0.5445   -0.6124   -3.9295 C   0  0  0  0  0  0  0  0  0  0  0  0
   -0.6144   -0.2544   -5.1495 Cl  0  0  0  0  0  0  0  0  0  0  0  0
    1.3761   -1.7220   -4.0695 C   0  0  0  0  0  0  0  0  0  0  0  0
    2.3177   -2.0134   -3.0794 C   0  0  0  0  0  0  0  0  0  0  0  0
    4.7987   -0.9379   -0.9941 C   0  0  0  0  0  0  0  0  0  0  0  0
    5.8056   -1.6403   -1.6707 C   0  0  0  0  0  0  0  0  0  0  0  0
    7.0933   -1.1067   -1.7657 C   0  0  0  0  0  0  0  0  0  0  0  0
    7.3756    0.1290   -1.1864 C   0  0  0  0  0  0  0  0  0  0  0  0
    8.9613    0.7854   -1.3045 Cl  0  0  0  0  0  0  0  0  0  0  0  0
    6.3820    0.8371   -0.5126 C   0  0  0  0  0  0  0  0  0  0  0  0
    5.0937    0.3051   -0.4169 C   0  0  0  0  0  0  0  0  0  0  0  0
    1.6561    0.5669   -0.9462 H   0  0  0  0  0  0  0  0  0  0  0  0
   -0.0036    1.0742   -2.6999 H   0  0  0  0  0  0  0  0  0  0  0  0
    1.2964   -2.3627   -4.9437 H   0  0  0  0  0  0  0  0  0  0  0  0
    2.9603   -2.8827   -3.1981 H   0  0  0  0  0  0  0  0  0  0  0  0
    5.5969   -2.6061   -2.1251 H   0  0  0  0  0  0  0  0  0  0  0  0
    7.8687   -1.6584   -2.2905 H   0  0  0  0  0  0  0  0  0  0  0  0
    6.6031    1.8004   -0.0607 H   0  0  0  0  0  0  0  0  0  0  0  0
    4.3263    0.8655    0.1123 H   0  0  0  0  0  0  0  0  0  0  0  0
  1  2  1  0  0  0  0
  2  3  1  0  0  0  0
  2  4  2  0  0  0  0
  4  5  1  0  0  0  0
  4 12  1  0  0  0  0
  5  6  1  0  0  0  0
  5 11  2  0  0  0  0
  6  7  2  0  0  0  0
  6 19  1  0  0  0  0
  7  8  1  0  0  0  0
  7 20  1  0  0  0  0
  8  9  1  0  0  0  0
  8 10  2  0  0  0  0
 10 11  1  0  0  0  0
 10 21  1  0  0  0  0
 11 22  1  0  0  0  0
 12 13  1  0  0  0  0
 12 18  2  0  0  0  0
 13 14  2  0  0  0  0
 13 23  1  0  0  0  0
 14 15  1  0  0  0  0
 14 24  1  0  0  0  0
 15 16  1  0  0  0  0
 15 17  2  0  0  0  0
 17 18  1  0  0  0  0
 17 25  1  0  0  0  0
 18 26  1  0  0  0  0
M  END
$$$$
