CHEBI:15981
 OpenBabel04242413353D

 83 85  0  0  1  0  0  0  0  0999 V2000
    8.1214    0.5838    3.1356 N   0  0  0  0  0  0  0  0  0  0  0  0
    8.4174    1.9049    3.7791 C   0  0  1  0  0  0  0  0  0  0  0  0
    7.1622    2.8124    3.8748 C   0  0  1  0  0  0  0  0  0  0  0  0
    6.1038    2.1069    4.5274 O   0  0  0  0  0  0  0  0  0  0  0  0
    4.8531    2.8325    4.6110 C   0  0  1  0  0  0  0  0  0  0  0  0
    4.2833    3.0744    3.1936 C   0  0  2  0  0  0  0  0  0  0  0  0
    4.8198    4.3336    2.7508 O   0  0  0  0  0  0  0  0  0  0  0  0
    2.7525    3.1133    3.0520 C   0  0  1  0  0  0  0  0  0  0  0  0
    2.3763    2.8644    1.6897 O   0  0  0  0  0  0  0  0  0  0  0  0
    2.7247    3.9699    0.5562 S   0  0  0  0  0  0  0  0  0  0  0  0
    2.0896    5.2220    0.8854 O   0  0  0  0  0  0  0  0  0  0  0  0
    4.1444    3.8926    0.2749 O   0  0  0  0  0  0  0  0  0  0  0  0
    1.9797    3.4108   -0.7530 O   0  0  0  0  0  0  0  0  0  0  0  0
    2.1932    1.9871    3.9300 C   0  0  2  0  0  0  0  0  0  0  0  0
    0.7684    1.8926    3.8033 O   0  0  0  0  0  0  0  0  0  0  0  0
    0.1181    0.8304    4.5457 C   0  0  1  0  0  0  0  0  0  0  0  0
    0.7297   -0.5690    4.2968 C   0  0  2  0  0  0  0  0  0  0  0  0
    0.5020   -0.9685    2.9329 O   0  0  0  0  0  0  0  0  0  0  0  0
    0.2996   -1.6820    5.2869 C   0  0  1  0  0  0  0  0  0  0  0  0
    1.2762   -2.8087    5.1338 N   0  0  0  0  0  0  0  0  0  0  0  0
    1.1257   -4.1872    6.0488 S   0  0  0  0  0  0  0  0  0  0  0  0
    2.0491   -5.1549    5.5090 O   0  0  0  0  0  0  0  0  0  0  0  0
    1.1409   -3.8340    7.4413 O   0  0  0  0  0  0  0  0  0  0  0  0
   -0.3442   -4.7130    5.6898 O   0  0  0  0  0  0  0  0  0  0  0  0
    0.2112   -1.1173    6.7250 C   0  0  1  0  0  0  0  0  0  0  0  0
    1.4754   -0.8270    7.3073 O   0  0  0  0  0  0  0  0  0  0  0  0
   -0.6253    0.0437    6.7302 O   0  0  0  0  0  0  0  0  0  0  0  0
   -0.0261    1.1526    6.0456 C   0  0  2  0  0  0  0  0  0  0  0  0
   -0.8981    2.3961    6.2665 C   0  0  0  0  0  0  0  0  0  0  0  0
   -0.8486    2.7478    7.6465 O   0  0  0  0  0  0  0  0  0  0  0  0
   -1.7102    4.0265    8.1431 S   0  0  0  0  0  0  0  0  0  0  0  0
   -1.4362    4.2324    9.5458 O   0  0  0  0  0  0  0  0  0  0  0  0
   -1.5848    5.0890    7.1714 O   0  0  0  0  0  0  0  0  0  0  0  0
   -3.2215    3.4747    8.0840 O   0  0  0  0  0  0  0  0  0  0  0  0
    2.5313    2.2778    5.2741 O   0  0  0  0  0  0  0  0  0  0  0  0
    3.9078    2.1224    5.5997 C   0  0  1  0  0  0  0  0  0  0  0  0
    4.2824    0.6737    5.9502 C   0  0  0  0  0  0  0  0  0  0  0  0
    3.6484   -0.3331    5.6613 O   0  0  0  0  0  0  0  0  0  0  0  0
    5.3715    0.5813    6.7414 O   0  0  0  0  0  0  0  0  0  0  0  0
    7.4708    4.0327    4.5117 O   0  0  0  0  0  0  0  0  0  0  0  0
    7.9251    3.8864    5.8582 C   0  0  2  0  0  0  0  0  0  0  0  0
    8.1147    5.3017    6.4309 C   0  0  0  0  0  0  0  0  0  0  0  0
    9.0532    6.0694    5.6753 O   0  0  0  0  0  0  0  0  0  0  0  0
    9.2092    3.0553    5.9096 C   0  0  1  0  0  0  0  0  0  0  0  0
    9.5662    2.8124    7.2759 O   0  0  0  0  0  0  0  0  0  0  0  0
    9.0690    1.7130    5.1667 C   0  0  2  0  0  0  0  0  0  0  0  0
   10.4134    1.2260    5.0353 O   0  0  0  0  0  0  0  0  0  0  0  0
   10.7228   -0.3184    4.6418 S   0  0  0  0  0  0  0  0  0  0  0  0
   12.1183   -0.5613    4.9263 O   0  0  0  0  0  0  0  0  0  0  0  0
    9.6804   -1.1527    5.1981 O   0  0  0  0  0  0  0  0  0  0  0  0
   10.5418   -0.3270    3.0423 O   0  0  0  0  0  0  0  0  0  0  0  0
    7.5618    0.7623    2.2917 H   0  0  0  0  0  0  0  0  0  0  0  0
    7.4532    0.0954    3.7532 H   0  0  0  0  0  0  0  0  0  0  0  0
    9.1521    2.4065    3.1363 H   0  0  0  0  0  0  0  0  0  0  0  0
    6.8692    3.0330    2.8444 H   0  0  0  0  0  0  0  0  0  0  0  0
    5.0655    3.8120    5.0609 H   0  0  0  0  0  0  0  0  0  0  0  0
    4.6821    2.3071    2.5171 H   0  0  0  0  0  0  0  0  0  0  0  0
    5.0499    4.2668    1.7997 H   0  0  0  0  0  0  0  0  0  0  0  0
    2.3434    4.0826    3.3631 H   0  0  0  0  0  0  0  0  0  0  0  0
    1.9735    4.1274   -1.4198 H   0  0  0  0  0  0  0  0  0  0  0  0
    2.6446    1.0538    3.5825 H   0  0  0  0  0  0  0  0  0  0  0  0
   -0.8969    0.7937    4.1268 H   0  0  0  0  0  0  0  0  0  0  0  0
    1.8088   -0.5040    4.3574 H   0  0  0  0  0  0  0  0  0  0  0  0
   -0.4441   -1.1676    2.8207 H   0  0  0  0  0  0  0  0  0  0  0  0
   -0.6896   -2.0413    4.9772 H   0  0  0  0  0  0  0  0  0  0  0  0
    2.2573   -2.5354    5.0542 H   0  0  0  0  0  0  0  0  0  0  0  0
   -0.2889   -5.6893    5.6207 H   0  0  0  0  0  0  0  0  0  0  0  0
   -0.2854   -1.8409    7.3760 H   0  0  0  0  0  0  0  0  0  0  0  0
    2.1722   -0.9041    6.6321 H   0  0  0  0  0  0  0  0  0  0  0  0
    0.9315    1.3519    6.5283 H   0  0  0  0  0  0  0  0  0  0  0  0
   -1.9383    2.1849    5.9941 H   0  0  0  0  0  0  0  0  0  0  0  0
   -0.5259    3.2355    5.6706 H   0  0  0  0  0  0  0  0  0  0  0  0
   -3.4117    3.0766    8.9587 H   0  0  0  0  0  0  0  0  0  0  0  0
    4.0028    2.6416    6.5641 H   0  0  0  0  0  0  0  0  0  0  0  0
    5.4481   -0.3628    6.9983 H   0  0  0  0  0  0  0  0  0  0  0  0
    7.1447    3.4027    6.4602 H   0  0  0  0  0  0  0  0  0  0  0  0
    7.1626    5.8412    6.3806 H   0  0  0  0  0  0  0  0  0  0  0  0
    8.4387    5.2796    7.4755 H   0  0  0  0  0  0  0  0  0  0  0  0
    9.9448    5.7592    5.9015 H   0  0  0  0  0  0  0  0  0  0  0  0
   10.0379    3.6139    5.4593 H   0  0  0  0  0  0  0  0  0  0  0  0
   10.3520    2.2334    7.2735 H   0  0  0  0  0  0  0  0  0  0  0  0
    8.4922    1.0184    5.7913 H   0  0  0  0  0  0  0  0  0  0  0  0
    9.5873   -0.1177    2.8653 H   0  0  0  0  0  0  0  0  0  0  0  0
  1 52  1  0  0  0  0
  1 53  1  0  0  0  0
  2  3  1  0  0  0  0
  2 46  1  0  0  0  0
  2  1  1  0  0  0  0
  2 54  1  6  0  0  0
  3  4  1  0  0  0  0
  3 40  1  0  0  0  0
  3 55  1  6  0  0  0
  5  6  1  0  0  0  0
  5 36  1  0  0  0  0
  5  4  1  0  0  0  0
  5 56  1  1  0  0  0
  6  8  1  0  0  0  0
  6  7  1  0  0  0  0
  6 57  1  6  0  0  0
  7 58  1  0  0  0  0
  8  9  1  0  0  0  0
  8 14  1  0  0  0  0
  8 59  1  1  0  0  0
  9 10  1  0  0  0  0
 10 11  2  0  0  0  0
 10 12  2  0  0  0  0
 10 13  1  0  0  0  0
 13 60  1  0  0  0  0
 14 35  1  0  0  0  0
 14 15  1  0  0  0  0
 14 61  1  6  0  0  0
 16 17  1  0  0  0  0
 16 28  1  0  0  0  0
 16 15  1  0  0  0  0
 16 62  1  6  0  0  0
 17 19  1  0  0  0  0
 17 18  1  0  0  0  0
 17 63  1  1  0  0  0
 18 64  1  0  0  0  0
 19 20  1  0  0  0  0
 19 25  1  0  0  0  0
 19 65  1  6  0  0  0
 20 21  1  0  0  0  0
 20 66  1  0  0  0  0
 21 22  2  0  0  0  0
 21 23  2  0  0  0  0
 21 24  1  0  0  0  0
 24 67  1  0  0  0  0
 25 26  1  0  0  0  0
 25 27  1  0  0  0  0
 25 68  1  1  0  0  0
 26 69  1  0  0  0  0
 27 28  1  0  0  0  0
 28 29  1  0  0  0  0
 28 70  1  1  0  0  0
 29 30  1  0  0  0  0
 29 71  1  0  0  0  0
 29 72  1  0  0  0  0
 30 31  1  0  0  0  0
 31 32  2  0  0  0  0
 31 33  2  0  0  0  0
 31 34  1  0  0  0  0
 34 73  1  0  0  0  0
 35 36  1  0  0  0  0
 36 37  1  0  0  0  0
 36 74  1  1  0  0  0
 37 38  2  0  0  0  0
 37 39  1  0  0  0  0
 39 75  1  0  0  0  0
 40 41  1  0  0  0  0
 41 44  1  0  0  0  0
 41 42  1  0  0  0  0
 41 76  1  1  0  0  0
 42 43  1  0  0  0  0
 42 77  1  0  0  0  0
 42 78  1  0  0  0  0
 43 79  1  0  0  0  0
 44 45  1  0  0  0  0
 44 46  1  0  0  0  0
 44 80  1  6  0  0  0
 45 81  1  0  0  0  0
 46 47  1  0  0  0  0
 46 82  1  1  0  0  0
 47 48  1  0  0  0  0
 48 49  2  0  0  0  0
 48 50  2  0  0  0  0
 48 51  1  0  0  0  0
 51 83  1  0  0  0  0
M  END
$$$$
