CHEBI:16542
 OpenBabel04242414433D

 27 26  0  0  1  0  0  0  0  0999 V2000
    5.9377    5.9499   -3.5953 N   0  0  0  0  0  0  0  0  0  0  0  0
    6.2718    7.2519   -4.1916 C   0  0  0  0  0  0  0  0  0  0  0  0
    7.4680    7.1553   -5.1417 C   0  0  0  0  0  0  0  0  0  0  0  0
    7.1375    6.4460   -6.3293 O   0  0  0  0  0  0  0  0  0  0  0  0
    6.7352    4.7799   -6.0947 P   0  0  0  0  0  0  0  0  0  0  0  0
    6.5270    4.6103   -7.6017 O   0  0  0  0  0  0  0  0  0  0  0  0
    8.3180    4.4199   -5.8785 O   0  0  0  0  0  0  0  0  0  0  0  0
    6.3329    3.1138   -5.8600 O   0  0  0  0  0  0  0  0  0  0  0  0
    6.2019    2.7796   -4.4812 C   0  0  0  0  0  0  0  0  0  0  0  0
    5.8668    1.2978   -4.3250 C   0  0  2  0  0  0  0  0  0  0  0  0
    4.5767    0.9298   -5.0034 N   0  0  0  0  0  0  0  0  0  0  0  0
    5.7466    0.9718   -2.8327 C   0  0  0  0  0  0  0  0  0  0  0  0
    6.5121    1.3517   -1.9628 O   0  0  0  0  0  0  0  0  0  0  0  0
    4.6574    0.1973   -2.5845 O   0  0  0  0  0  0  0  0  0  0  0  0
    6.6854    5.6941   -2.9410 H   0  0  0  0  0  0  0  0  0  0  0  0
    5.1178    6.0819   -2.9946 H   0  0  0  0  0  0  0  0  0  0  0  0
    6.4953    7.9594   -3.3863 H   0  0  0  0  0  0  0  0  0  0  0  0
    5.3944    7.6146   -4.7369 H   0  0  0  0  0  0  0  0  0  0  0  0
    8.3332    6.6915   -4.6563 H   0  0  0  0  0  0  0  0  0  0  0  0
    7.7668    8.1642   -5.4446 H   0  0  0  0  0  0  0  0  0  0  0  0
    8.6640    4.2253   -6.7710 H   0  0  0  0  0  0  0  0  0  0  0  0
    5.4015    3.3886   -4.0483 H   0  0  0  0  0  0  0  0  0  0  0  0
    7.1358    3.0200   -3.9619 H   0  0  0  0  0  0  0  0  0  0  0  0
    6.6525    0.6650   -4.7506 H   0  0  0  0  0  0  0  0  0  0  0  0
    4.7849    0.9270   -6.0109 H   0  0  0  0  0  0  0  0  0  0  0  0
    3.9373    1.7284   -4.9194 H   0  0  0  0  0  0  0  0  0  0  0  0
    4.2244    0.0517   -3.4648 H   0  0  0  0  0  0  0  0  0  0  0  0
  1  2  1  0  0  0  0
  1 15  1  0  0  0  0
  1 16  1  0  0  0  0
  2  3  1  0  0  0  0
  2 17  1  0  0  0  0
  2 18  1  0  0  0  0
  3  4  1  0  0  0  0
  3 19  1  0  0  0  0
  3 20  1  0  0  0  0
  4  5  1  0  0  0  0
  5  6  2  0  0  0  0
  5  7  1  0  0  0  0
  5  8  1  0  0  0  0
  7 21  1  0  0  0  0
  8  9  1  0  0  0  0
  9 22  1  0  0  0  0
  9 23  1  0  0  0  0
 10 12  1  0  0  0  0
 10 11  1  0  0  0  0
 10  9  1  0  0  0  0
 10 24  1  6  0  0  0
 11 25  1  0  0  0  0
 11 26  1  0  0  0  0
 12 13  2  0  0  0  0
 12 14  1  0  0  0  0
 14 27  1  0  0  0  0
M  END
$$$$
