CHEBI:18105
 OpenBabel04242423323D

 29 28  0  0  1  0  0  0  0  0999 V2000
    2.5244    4.1544   -1.1260 O   0  0  0  0  0  0  0  0  0  0  0  0
    3.2022    3.4422   -0.3685 C   0  0  0  0  0  0  0  0  0  0  0  0
    3.1171    3.6049    1.1495 C   0  0  0  0  0  0  0  0  0  0  0  0
    2.8691    4.9332    1.5628 O   0  0  0  0  0  0  0  0  0  0  0  0
    1.4353    5.5706    1.2566 P   0  0  0  0  0  0  0  0  0  0  0  0
    0.2589    4.6641    1.3470 O   0  0  0  0  0  0  0  0  0  0  0  0
    1.3852    6.8242    2.2439 O   0  0  0  0  0  0  0  0  0  0  0  0
    1.6280    6.2991   -0.1496 O   0  0  0  0  0  0  0  0  0  0  0  0
    4.0899    2.3148   -0.9035 C   0  0  1  0  0  0  0  0  0  0  0  0
    5.3085    2.2752   -0.1501 O   0  0  0  0  0  0  0  0  0  0  0  0
    4.4432    2.5733   -2.3848 C   0  0  2  0  0  0  0  0  0  0  0  0
    5.6846    1.8844   -2.6637 O   0  0  0  0  0  0  0  0  0  0  0  0
    3.3660    2.0753   -3.3563 C   0  0  2  0  0  0  0  0  0  0  0  0
    3.3660    0.6349   -3.3177 O   0  0  0  0  0  0  0  0  0  0  0  0
    3.6552    2.5096   -4.7974 C   0  0  0  0  0  0  0  0  0  0  0  0
    2.6696    1.9133   -5.6450 O   0  0  0  0  0  0  0  0  0  0  0  0
    4.0619    3.3088    1.6101 H   0  0  0  0  0  0  0  0  0  0  0  0
    2.3371    2.9375    1.5300 H   0  0  0  0  0  0  0  0  0  0  0  0
    0.5433    7.3022    2.1546 H   0  0  0  0  0  0  0  0  0  0  0  0
    1.7768    5.6220   -0.8489 H   0  0  0  0  0  0  0  0  0  0  0  0
    3.5824    1.3559   -0.7605 H   0  0  0  0  0  0  0  0  0  0  0  0
    6.0305    2.2011   -0.8119 H   0  0  0  0  0  0  0  0  0  0  0  0
    4.6402    3.6402   -2.5425 H   0  0  0  0  0  0  0  0  0  0  0  0
    5.4204    0.9556   -2.8451 H   0  0  0  0  0  0  0  0  0  0  0  0
    2.3637    2.4060   -3.0655 H   0  0  0  0  0  0  0  0  0  0  0  0
    2.8307    0.3718   -4.0974 H   0  0  0  0  0  0  0  0  0  0  0  0
    4.6336    2.1535   -5.1349 H   0  0  0  0  0  0  0  0  0  0  0  0
    3.6027    3.5976   -4.9001 H   0  0  0  0  0  0  0  0  0  0  0  0
    2.8526    2.2256   -6.5498 H   0  0  0  0  0  0  0  0  0  0  0  0
  1  2  2  0  0  0  0
  2  3  1  0  0  0  0
  2  9  1  0  0  0  0
  3  4  1  0  0  0  0
  3 17  1  0  0  0  0
  3 18  1  0  0  0  0
  4  5  1  0  0  0  0
  5  6  2  0  0  0  0
  5  7  1  0  0  0  0
  5  8  1  0  0  0  0
  7 19  1  0  0  0  0
  8 20  1  0  0  0  0
  9 10  1  0  0  0  0
  9 21  1  6  0  0  0
 10 22  1  0  0  0  0
 11 12  1  0  0  0  0
 11  9  1  0  0  0  0
 11 23  1  1  0  0  0
 12 24  1  0  0  0  0
 13 15  1  0  0  0  0
 13 14  1  0  0  0  0
 13 11  1  0  0  0  0
 13 25  1  1  0  0  0
 14 26  1  0  0  0  0
 15 16  1  0  0  0  0
 15 27  1  0  0  0  0
 15 28  1  0  0  0  0
 16 29  1  0  0  0  0
M  END
$$$$
