CHEBI:4784
 OpenBabel04242411003D

 55 56  0  0  1  0  0  0  0  0999 V2000
    0.8262   -2.7832   -4.3720 C   0  0  0  0  0  0  0  0  0  0  0  0
    0.7253   -1.2938   -4.1027 C   0  0  0  0  0  0  0  0  0  0  0  0
    1.9506   -0.8744   -3.4878 O   0  0  0  0  0  0  0  0  0  0  0  0
    1.8738   -0.4108   -2.2073 C   0  0  0  0  0  0  0  0  0  0  0  0
    0.8456   -0.2775   -1.5548 O   0  0  0  0  0  0  0  0  0  0  0  0
    3.2905   -0.1049   -1.6906 C   0  0  2  0  0  0  0  0  0  0  0  0
    3.2862    0.0097   -0.1542 C   0  0  0  0  0  0  0  0  0  0  0  0
    4.6787    0.0762    0.4813 C   0  0  0  0  0  0  0  0  0  0  0  0
    5.5047   -1.1739    0.2929 C   0  0  0  0  0  0  0  0  0  0  0  0
    6.7450   -1.1059   -0.3555 C   0  0  0  0  0  0  0  0  0  0  0  0
    7.5188   -2.2547   -0.5294 C   0  0  0  0  0  0  0  0  0  0  0  0
    7.0602   -3.4837   -0.0600 C   0  0  0  0  0  0  0  0  0  0  0  0
    5.8306   -3.5639    0.5895 C   0  0  0  0  0  0  0  0  0  0  0  0
    5.0595   -2.4146    0.7716 C   0  0  0  0  0  0  0  0  0  0  0  0
    3.9322    1.0113   -2.4317 N   0  0  0  0  0  0  0  0  0  0  0  0
    3.4421    2.3756   -2.1347 C   0  0  1  0  0  0  0  0  0  0  0  0
    4.4014    3.3772   -2.7785 C   0  0  0  0  0  0  0  0  0  0  0  0
    2.0394    2.6160   -2.7322 C   0  0  0  0  0  0  0  0  0  0  0  0
    1.7662    2.2351   -3.8744 O   0  0  0  0  0  0  0  0  0  0  0  0
    1.1129    3.2640   -1.9493 N   0  0  0  0  0  0  0  0  0  0  0  0
    1.2733    3.7217   -0.5796 C   0  0  0  0  0  0  0  0  0  0  0  0
   -0.0635    4.3509   -0.2142 C   0  0  0  0  0  0  0  0  0  0  0  0
   -1.0517    3.6188   -1.1178 C   0  0  0  0  0  0  0  0  0  0  0  0
   -0.2635    3.4433   -2.4151 C   0  0  1  0  0  0  0  0  0  0  0  0
   -0.4591    4.6679   -3.3173 C   0  0  0  0  0  0  0  0  0  0  0  0
   -1.5088    4.9920   -3.8548 O   0  0  0  0  0  0  0  0  0  0  0  0
    0.6225    5.4682   -3.4335 O   0  0  0  0  0  0  0  0  0  0  0  0
   -0.0830   -3.1597   -4.8482 H   0  0  0  0  0  0  0  0  0  0  0  0
    0.9930   -3.3333   -3.4398 H   0  0  0  0  0  0  0  0  0  0  0  0
    1.6803   -2.9979   -5.0233 H   0  0  0  0  0  0  0  0  0  0  0  0
   -0.1572   -1.0780   -3.4917 H   0  0  0  0  0  0  0  0  0  0  0  0
    0.6218   -0.7473   -5.0453 H   0  0  0  0  0  0  0  0  0  0  0  0
    3.8688   -1.0058   -1.9359 H   0  0  0  0  0  0  0  0  0  0  0  0
    2.7144    0.8898    0.1593 H   0  0  0  0  0  0  0  0  0  0  0  0
    2.7349   -0.8427    0.2645 H   0  0  0  0  0  0  0  0  0  0  0  0
    4.5686    0.2419    1.5609 H   0  0  0  0  0  0  0  0  0  0  0  0
    5.2181    0.9514    0.0999 H   0  0  0  0  0  0  0  0  0  0  0  0
    7.1156   -0.1558   -0.7345 H   0  0  0  0  0  0  0  0  0  0  0  0
    8.4795   -2.1891   -1.0330 H   0  0  0  0  0  0  0  0  0  0  0  0
    7.6621   -4.3777   -0.1986 H   0  0  0  0  0  0  0  0  0  0  0  0
    5.4724   -4.5218    0.9575 H   0  0  0  0  0  0  0  0  0  0  0  0
    4.1078   -2.4972    1.2913 H   0  0  0  0  0  0  0  0  0  0  0  0
    3.7831    0.8417   -3.4341 H   0  0  0  0  0  0  0  0  0  0  0  0
    3.4649    2.5511   -1.0590 H   0  0  0  0  0  0  0  0  0  0  0  0
    5.4138    3.2665   -2.3746 H   0  0  0  0  0  0  0  0  0  0  0  0
    4.0729    4.4051   -2.5893 H   0  0  0  0  0  0  0  0  0  0  0  0
    4.4536    3.2470   -3.8661 H   0  0  0  0  0  0  0  0  0  0  0  0
    2.1032    4.4312   -0.5103 H   0  0  0  0  0  0  0  0  0  0  0  0
    1.4830    2.8556    0.0542 H   0  0  0  0  0  0  0  0  0  0  0  0
   -0.0573    5.4205   -0.4552 H   0  0  0  0  0  0  0  0  0  0  0  0
   -0.2987    4.2441    0.8485 H   0  0  0  0  0  0  0  0  0  0  0  0
   -1.9907    4.1673   -1.2353 H   0  0  0  0  0  0  0  0  0  0  0  0
   -1.2784    2.6357   -0.6863 H   0  0  0  0  0  0  0  0  0  0  0  0
   -0.5846    2.5624   -2.9816 H   0  0  0  0  0  0  0  0  0  0  0  0
    0.3236    6.1785   -4.0379 H   0  0  0  0  0  0  0  0  0  0  0  0
  1  2  1  0  0  0  0
  1 28  1  0  0  0  0
  1 29  1  0  0  0  0
  1 30  1  0  0  0  0
  2  3  1  0  0  0  0
  2 31  1  0  0  0  0
  2 32  1  0  0  0  0
  3  4  1  0  0  0  0
  4  5  2  0  0  0  0
  6 15  1  0  0  0  0
  6  7  1  0  0  0  0
  6  4  1  0  0  0  0
  6 33  1  6  0  0  0
  7  8  1  0  0  0  0
  7 34  1  0  0  0  0
  7 35  1  0  0  0  0
  8  9  1  0  0  0  0
  8 36  1  0  0  0  0
  8 37  1  0  0  0  0
  9 10  1  0  0  0  0
  9 14  2  0  0  0  0
 10 11  2  0  0  0  0
 10 38  1  0  0  0  0
 11 12  1  0  0  0  0
 11 39  1  0  0  0  0
 12 13  2  0  0  0  0
 12 40  1  0  0  0  0
 13 14  1  0  0  0  0
 13 41  1  0  0  0  0
 14 42  1  0  0  0  0
 15 16  1  0  0  0  0
 15 43  1  0  0  0  0
 16 17  1  0  0  0  0
 16 18  1  0  0  0  0
 16 44  1  1  0  0  0
 17 45  1  0  0  0  0
 17 46  1  0  0  0  0
 17 47  1  0  0  0  0
 18 19  2  0  0  0  0
 18 20  1  0  0  0  0
 20 21  1  0  0  0  0
 20 24  1  0  0  0  0
 21 22  1  0  0  0  0
 21 48  1  0  0  0  0
 21 49  1  0  0  0  0
 22 23  1  0  0  0  0
 22 50  1  0  0  0  0
 22 51  1  0  0  0  0
 23 24  1  0  0  0  0
 23 52  1  0  0  0  0
 23 53  1  0  0  0  0
 24 25  1  0  0  0  0
 24 54  1  6  0  0  0
 25 26  2  0  0  0  0
 25 27  1  0  0  0  0
 27 55  1  0  0  0  0
M  END
$$$$
