CHEBI:17884
 OpenBabel04242423133D

 35 35  0  0  1  0  0  0  0  0999 V2000
    9.6816    4.8314   -5.2030 N   0  0  0  0  0  0  0  0  0  0  0  0
    9.3875    3.5354   -5.5127 C   0  0  0  0  0  0  0  0  0  0  0  0
    8.3261    3.2323   -6.0441 O   0  0  0  0  0  0  0  0  0  0  0  0
   10.4916    2.5464   -5.2107 C   0  0  0  0  0  0  0  0  0  0  0  0
    9.9464    1.1752   -4.8151 C   0  0  0  0  0  0  0  0  0  0  0  0
    9.1392    1.1654   -3.5065 C   0  0  2  0  0  0  0  0  0  0  0  0
    9.9827    1.5140   -2.3553 N   0  0  0  0  0  0  0  0  0  0  0  0
   10.1226    2.7945   -1.8749 C   0  0  0  0  0  0  0  0  0  0  0  0
    9.6165    3.7755   -2.4153 O   0  0  0  0  0  0  0  0  0  0  0  0
   11.0716    2.9320   -0.7002 C   0  0  0  0  0  0  0  0  0  0  0  0
   10.5894    2.2924    0.5760 C   0  0  0  0  0  0  0  0  0  0  0  0
   10.9891    0.9933    0.9205 C   0  0  0  0  0  0  0  0  0  0  0  0
   10.5633    0.4166    2.1176 C   0  0  0  0  0  0  0  0  0  0  0  0
    9.7400    1.1332    2.9836 C   0  0  0  0  0  0  0  0  0  0  0  0
    9.3320    2.4228    2.6484 C   0  0  0  0  0  0  0  0  0  0  0  0
    9.7480    2.9983    1.4468 C   0  0  0  0  0  0  0  0  0  0  0  0
    8.5648   -0.2457   -3.3048 C   0  0  0  0  0  0  0  0  0  0  0  0
    7.8123   -0.8463   -4.0559 O   0  0  0  0  0  0  0  0  0  0  0  0
    9.0090   -0.8550   -2.1779 O   0  0  0  0  0  0  0  0  0  0  0  0
    8.8950    5.4609   -5.3035 H   0  0  0  0  0  0  0  0  0  0  0  0
   10.2172    4.9800   -4.3533 H   0  0  0  0  0  0  0  0  0  0  0  0
   11.1679    2.9358   -4.4438 H   0  0  0  0  0  0  0  0  0  0  0  0
   11.0852    2.4455   -6.1273 H   0  0  0  0  0  0  0  0  0  0  0  0
   10.7922    0.4804   -4.7254 H   0  0  0  0  0  0  0  0  0  0  0  0
    9.3220    0.7883   -5.6311 H   0  0  0  0  0  0  0  0  0  0  0  0
    8.2920    1.8586   -3.5399 H   0  0  0  0  0  0  0  0  0  0  0  0
   10.1953    0.7414   -1.7296 H   0  0  0  0  0  0  0  0  0  0  0  0
   11.2465    4.0015   -0.5265 H   0  0  0  0  0  0  0  0  0  0  0  0
   12.0438    2.5164   -0.9926 H   0  0  0  0  0  0  0  0  0  0  0  0
   11.6466    0.4242    0.2673 H   0  0  0  0  0  0  0  0  0  0  0  0
   10.8820   -0.5888    2.3802 H   0  0  0  0  0  0  0  0  0  0  0  0
    9.4193    0.6884    3.9220 H   0  0  0  0  0  0  0  0  0  0  0  0
    8.6939    2.9838    3.3267 H   0  0  0  0  0  0  0  0  0  0  0  0
    9.4235    4.0083    1.2028 H   0  0  0  0  0  0  0  0  0  0  0  0
    8.5500   -1.7232   -2.1986 H   0  0  0  0  0  0  0  0  0  0  0  0
  1  2  1  0  0  0  0
  1 20  1  0  0  0  0
  1 21  1  0  0  0  0
  2  3  2  0  0  0  0
  2  4  1  0  0  0  0
  4  5  1  0  0  0  0
  4 22  1  0  0  0  0
  4 23  1  0  0  0  0
  5 24  1  0  0  0  0
  5 25  1  0  0  0  0
  6 17  1  0  0  0  0
  6  7  1  0  0  0  0
  6  5  1  0  0  0  0
  6 26  1  6  0  0  0
  7  8  1  0  0  0  0
  7 27  1  0  0  0  0
  8  9  2  0  0  0  0
  8 10  1  0  0  0  0
 10 11  1  0  0  0  0
 10 28  1  0  0  0  0
 10 29  1  0  0  0  0
 11 12  1  0  0  0  0
 11 16  2  0  0  0  0
 12 13  2  0  0  0  0
 12 30  1  0  0  0  0
 13 14  1  0  0  0  0
 13 31  1  0  0  0  0
 14 15  2  0  0  0  0
 14 32  1  0  0  0  0
 15 16  1  0  0  0  0
 15 33  1  0  0  0  0
 16 34  1  0  0  0  0
 17 18  2  0  0  0  0
 17 19  1  0  0  0  0
 19 35  1  0  0  0  0
M  END
$$$$
