CHEBI:17209
 OpenBabel04242416013D

 40 45  0  0  0  0  0  0  0  0999 V2000
   -0.2482   -1.7572   -1.6981 C   0  0  0  0  0  0  0  0  0  0  0  0
   -0.1832   -1.3858   -0.2779 N   0  0  0  0  0  0  0  0  0  0  0  0
   -1.4562   -1.5304    0.4532 C   0  0  0  0  0  0  0  0  0  0  0  0
   -2.4188   -0.4149    0.1647 C   0  0  0  0  0  0  0  0  0  0  0  0
   -1.9189    0.8813   -0.0883 C   0  0  0  0  0  0  0  0  0  0  0  0
   -2.8442    1.9231   -0.3438 C   0  0  0  0  0  0  0  0  0  0  0  0
   -4.2266    1.7009   -0.3110 C   0  0  0  0  0  0  0  0  0  0  0  0
   -4.6662    0.4303   -0.0210 C   0  0  0  0  0  0  0  0  0  0  0  0
   -3.7896   -0.6011    0.2114 C   0  0  0  0  0  0  0  0  0  0  0  0
   -4.4345   -1.7687    0.4859 O   0  0  0  0  0  0  0  0  0  0  0  0
   -5.8120   -1.3462    0.4179 C   0  0  0  0  0  0  0  0  0  0  0  0
   -5.9663    0.0446    0.0733 O   0  0  0  0  0  0  0  0  0  0  0  0
   -0.4488    1.0655   -0.0675 C   0  0  0  0  0  0  0  0  0  0  0  0
    0.1541    2.3275    0.0376 C   0  0  0  0  0  0  0  0  0  0  0  0
    1.5433    2.4696    0.0795 C   0  0  0  0  0  0  0  0  0  0  0  0
    2.3840    1.3542    0.0397 C   0  0  0  0  0  0  0  0  0  0  0  0
    3.7780    1.5237    0.1171 C   0  0  0  0  0  0  0  0  0  0  0  0
    4.5776    0.4031    0.1100 C   0  0  0  0  0  0  0  0  0  0  0  0
    4.0473   -0.8571    0.0254 C   0  0  0  0  0  0  0  0  0  0  0  0
    2.6876   -1.0633   -0.0607 C   0  0  0  0  0  0  0  0  0  0  0  0
    1.8146    0.0505   -0.0617 C   0  0  0  0  0  0  0  0  0  0  0  0
    0.3942   -0.0815   -0.1290 C   0  0  0  0  0  0  0  0  0  0  0  0
    5.0014   -1.8257    0.0467 O   0  0  0  0  0  0  0  0  0  0  0  0
    6.1947   -1.0261    0.1743 C   0  0  0  0  0  0  0  0  0  0  0  0
    5.9346    0.3930    0.1950 O   0  0  0  0  0  0  0  0  0  0  0  0
   -0.6179   -2.7840   -1.7956 H   0  0  0  0  0  0  0  0  0  0  0  0
    0.7415   -1.7313   -2.1674 H   0  0  0  0  0  0  0  0  0  0  0  0
   -0.9173   -1.1010   -2.2668 H   0  0  0  0  0  0  0  0  0  0  0  0
   -1.2507   -1.5518    1.5313 H   0  0  0  0  0  0  0  0  0  0  0  0
   -1.9007   -2.5003    0.1988 H   0  0  0  0  0  0  0  0  0  0  0  0
   -2.5010    2.9273   -0.5782 H   0  0  0  0  0  0  0  0  0  0  0  0
   -4.9287    2.5050   -0.5002 H   0  0  0  0  0  0  0  0  0  0  0  0
   -6.2802   -1.5204    1.3938 H   0  0  0  0  0  0  0  0  0  0  0  0
   -6.3288   -1.9540   -0.3334 H   0  0  0  0  0  0  0  0  0  0  0  0
   -0.4445    3.2310    0.1089 H   0  0  0  0  0  0  0  0  0  0  0  0
    1.9611    3.4711    0.1650 H   0  0  0  0  0  0  0  0  0  0  0  0
    4.2294    2.5072    0.1951 H   0  0  0  0  0  0  0  0  0  0  0  0
    2.2997   -2.0759   -0.1089 H   0  0  0  0  0  0  0  0  0  0  0  0
    6.8584   -1.2487   -0.6689 H   0  0  0  0  0  0  0  0  0  0  0  0
    6.7042   -1.3025    1.1049 H   0  0  0  0  0  0  0  0  0  0  0  0
  1  2  1  0  0  0  0
  1 26  1  0  0  0  0
  1 27  1  0  0  0  0
  1 28  1  0  0  0  0
  2  3  1  0  0  0  0
  2 22  1  0  0  0  0
  3  4  1  0  0  0  0
  3 29  1  0  0  0  0
  3 30  1  0  0  0  0
  4  5  1  0  0  0  0
  4  9  2  0  0  0  0
  5  6  2  0  0  0  0
  5 13  1  0  0  0  0
  6  7  1  0  0  0  0
  6 31  1  0  0  0  0
  7  8  2  0  0  0  0
  7 32  1  0  0  0  0
  8  9  1  0  0  0  0
  8 12  1  0  0  0  0
  9 10  1  0  0  0  0
 10 11  1  0  0  0  0
 11 12  1  0  0  0  0
 11 33  1  0  0  0  0
 11 34  1  0  0  0  0
 13 14  1  0  0  0  0
 13 22  2  0  0  0  0
 14 15  2  0  0  0  0
 14 35  1  0  0  0  0
 15 16  1  0  0  0  0
 15 36  1  0  0  0  0
 16 17  1  0  0  0  0
 16 21  2  0  0  0  0
 17 18  2  0  0  0  0
 17 37  1  0  0  0  0
 18 19  1  0  0  0  0
 18 25  1  0  0  0  0
 19 20  2  0  0  0  0
 19 23  1  0  0  0  0
 20 21  1  0  0  0  0
 20 38  1  0  0  0  0
 21 22  1  0  0  0  0
 23 24  1  0  0  0  0
 24 25  1  0  0  0  0
 24 39  1  0  0  0  0
 24 40  1  0  0  0  0
M  END
$$$$
