CHEBI:16087
 OpenBabel04242413483D

 18 17  0  0  0  0  0  0  0  0999 V2000
    2.4305    1.6814   -0.7831 O   0  0  0  0  0  0  0  0  0  0  0  0
    2.7641    1.4034   -1.9715 C   0  0  0  0  0  0  0  0  0  0  0  0
    2.0004    0.9635   -2.8933 O   0  5  0  0  0  0  0  0  0  0  0  0
    4.1822    1.7827   -2.4294 C   0  0  0  0  0  0  0  0  0  0  0  0
    5.3789    1.7670   -1.4392 C   0  0  0  0  0  0  0  0  0  0  0  0
    5.8924    0.3272   -1.2140 C   0  0  0  0  0  0  0  0  0  0  0  0
    6.0196   -0.0367   -0.0041 O   0  0  0  0  0  0  0  0  0  0  0  0
    6.1331   -0.3673   -2.2502 O   0  5  0  0  0  0  0  0  0  0  0  0
    6.5764    2.5893   -1.9696 C   0  0  0  0  0  0  0  0  0  0  0  0
    6.0898    3.9465   -2.2741 O   0  0  0  0  0  0  0  0  0  0  0  0
    7.7991    2.8080   -0.9865 C   0  0  0  0  0  0  0  0  0  0  0  0
    7.6010    3.7488   -0.1381 O   0  0  0  0  0  0  0  0  0  0  0  0
    8.9009    2.2567   -1.2838 O   0  5  0  0  0  0  0  0  0  0  0  0
    4.0540    2.8013   -2.8184 H   0  0  0  0  0  0  0  0  0  0  0  0
    4.4236    1.1642   -3.3040 H   0  0  0  0  0  0  0  0  0  0  0  0
    5.0486    2.1881   -0.4816 H   0  0  0  0  0  0  0  0  0  0  0  0
    6.9475    2.1804   -2.9161 H   0  0  0  0  0  0  0  0  0  0  0  0
    6.2481    4.3798   -1.4033 H   0  0  0  0  0  0  0  0  0  0  0  0
  1  2  2  0  0  0  0
  2  3  1  0  0  0  0
  2  4  1  0  0  0  0
  4  5  1  0  0  0  0
  4 14  1  0  0  0  0
  4 15  1  0  0  0  0
  5  6  1  0  0  0  0
  5  9  1  0  0  0  0
  5 16  1  0  0  0  0
  6  7  2  0  0  0  0
  6  8  1  0  0  0  0
  9 10  1  0  0  0  0
  9 11  1  0  0  0  0
  9 17  1  0  0  0  0
 10 18  1  0  0  0  0
 11 12  2  0  0  0  0
 11 13  1  0  0  0  0
M  CHG  3   3  -1   8  -1  13  -1
M  END
$$$$
