CHEBI:15555
 OpenBabel04242412473D

 57 57  0  0  1  0  0  0  0  0999 V2000
   10.0246   -6.4692  -11.7569 C   0  0  0  0  0  0  0  0  0  0  0  0
    9.8941   -5.7665  -10.4156 C   0  0  0  0  0  0  0  0  0  0  0  0
   11.2619   -5.5288   -9.7757 C   0  0  0  0  0  0  0  0  0  0  0  0
   11.1641   -5.0050   -8.3421 C   0  0  0  0  0  0  0  0  0  0  0  0
   10.5442   -3.6021   -8.2333 C   0  0  0  0  0  0  0  0  0  0  0  0
   10.5187   -3.0405   -6.8031 C   0  0  2  0  0  0  0  0  0  0  0  0
   11.8495   -2.9622   -6.2996 O   0  0  0  0  0  0  0  0  0  0  0  0
    9.6629   -3.8483   -5.8618 C   0  0  0  0  0  0  0  0  0  0  0  0
   10.0934   -4.9297   -5.1900 C   0  0  0  0  0  0  0  0  0  0  0  0
    9.2490   -5.7689   -4.2716 C   0  0  1  0  0  0  0  0  0  0  0  0
    8.7871   -7.0261   -5.0023 C   0  0  0  0  0  0  0  0  0  0  0  0
    7.9356   -7.0366   -5.8853 O   0  0  0  0  0  0  0  0  0  0  0  0
    9.4893   -8.2692   -4.5244 C   0  0  0  0  0  0  0  0  0  0  0  0
   10.6183   -7.6805   -3.6921 C   0  0  2  0  0  0  0  0  0  0  0  0
   11.0668   -8.5555   -2.6788 O   0  0  0  0  0  0  0  0  0  0  0  0
   10.0827   -6.3552   -3.1173 C   0  0  2  0  0  0  0  0  0  0  0  0
    9.3089   -6.4434   -1.7817 C   0  0  0  0  0  0  0  0  0  0  0  0
    8.0353   -7.2447   -1.7683 C   0  0  0  0  0  0  0  0  0  0  0  0
    7.6978   -8.1996   -0.8862 C   0  0  0  0  0  0  0  0  0  0  0  0
    8.4806   -8.6488    0.3165 C   0  0  0  0  0  0  0  0  0  0  0  0
    9.3605   -9.8738    0.0703 C   0  0  0  0  0  0  0  0  0  0  0  0
    8.5948  -11.0911   -0.4320 C   0  0  0  0  0  0  0  0  0  0  0  0
    9.5406  -12.2353   -0.6499 C   0  0  0  0  0  0  0  0  0  0  0  0
   10.2581  -12.4018   -1.6231 O   0  0  0  0  0  0  0  0  0  0  0  0
    9.5715  -13.0916    0.3878 O   0  0  0  0  0  0  0  0  0  0  0  0
   10.4824   -7.4565  -11.6378 H   0  0  0  0  0  0  0  0  0  0  0  0
   10.6401   -5.8847  -12.4477 H   0  0  0  0  0  0  0  0  0  0  0  0
    9.0376   -6.6056  -12.2095 H   0  0  0  0  0  0  0  0  0  0  0  0
    9.2698   -6.3760   -9.7517 H   0  0  0  0  0  0  0  0  0  0  0  0
    9.3765   -4.8131  -10.5658 H   0  0  0  0  0  0  0  0  0  0  0  0
   11.8483   -4.8337  -10.3880 H   0  0  0  0  0  0  0  0  0  0  0  0
   11.8162   -6.4756   -9.7517 H   0  0  0  0  0  0  0  0  0  0  0  0
   12.1736   -4.9916   -7.9138 H   0  0  0  0  0  0  0  0  0  0  0  0
   10.5807   -5.7251   -7.7587 H   0  0  0  0  0  0  0  0  0  0  0  0
    9.5232   -3.6081   -8.6307 H   0  0  0  0  0  0  0  0  0  0  0  0
   11.1355   -2.9225   -8.8601 H   0  0  0  0  0  0  0  0  0  0  0  0
   10.1320   -2.0151   -6.8307 H   0  0  0  0  0  0  0  0  0  0  0  0
   11.7797   -2.6578   -5.3788 H   0  0  0  0  0  0  0  0  0  0  0  0
    8.6246   -3.5347   -5.7723 H   0  0  0  0  0  0  0  0  0  0  0  0
   11.1255   -5.2463   -5.3426 H   0  0  0  0  0  0  0  0  0  0  0  0
    8.3778   -5.2136   -3.9089 H   0  0  0  0  0  0  0  0  0  0  0  0
    9.8774   -8.8456   -5.3685 H   0  0  0  0  0  0  0  0  0  0  0  0
    8.8114   -8.8939   -3.9377 H   0  0  0  0  0  0  0  0  0  0  0  0
   11.4741   -7.4694   -4.3464 H   0  0  0  0  0  0  0  0  0  0  0  0
   11.2956   -9.4103   -3.0876 H   0  0  0  0  0  0  0  0  0  0  0  0
   10.9445   -5.7078   -2.9006 H   0  0  0  0  0  0  0  0  0  0  0  0
    9.0429   -5.4199   -1.4851 H   0  0  0  0  0  0  0  0  0  0  0  0
   10.0046   -6.8023   -1.0160 H   0  0  0  0  0  0  0  0  0  0  0  0
    7.3008   -7.0073   -2.5371 H   0  0  0  0  0  0  0  0  0  0  0  0
    6.7314   -8.6865   -1.0168 H   0  0  0  0  0  0  0  0  0  0  0  0
    7.7685   -8.8695    1.1215 H   0  0  0  0  0  0  0  0  0  0  0  0
    9.1040   -7.8324    0.6986 H   0  0  0  0  0  0  0  0  0  0  0  0
    9.8721  -10.1292    1.0074 H   0  0  0  0  0  0  0  0  0  0  0  0
   10.1550   -9.6222   -0.6386 H   0  0  0  0  0  0  0  0  0  0  0  0
    8.0932  -10.8969   -1.3862 H   0  0  0  0  0  0  0  0  0  0  0  0
    7.8169  -11.3886    0.2801 H   0  0  0  0  0  0  0  0  0  0  0  0
   10.2363  -13.7627    0.1270 H   0  0  0  0  0  0  0  0  0  0  0  0
  1  2  1  0  0  0  0
  1 26  1  0  0  0  0
  1 27  1  0  0  0  0
  1 28  1  0  0  0  0
  2  3  1  0  0  0  0
  2 29  1  0  0  0  0
  2 30  1  0  0  0  0
  3  4  1  0  0  0  0
  3 31  1  0  0  0  0
  3 32  1  0  0  0  0
  4  5  1  0  0  0  0
  4 33  1  0  0  0  0
  4 34  1  0  0  0  0
  5 35  1  0  0  0  0
  5 36  1  0  0  0  0
  6  8  1  0  0  0  0
  6  7  1  0  0  0  0
  6  5  1  0  0  0  0
  6 37  1  6  0  0  0
  7 38  1  0  0  0  0
  8  9  2  0  0  0  0
  8 39  1  0  0  0  0
  9 40  1  0  0  0  0
 10 11  1  0  0  0  0
 10 16  1  0  0  0  0
 10  9  1  0  0  0  0
 10 41  1  1  0  0  0
 11 12  2  0  0  0  0
 11 13  1  0  0  0  0
 13 14  1  0  0  0  0
 13 42  1  0  0  0  0
 13 43  1  0  0  0  0
 14 16  1  0  0  0  0
 14 15  1  0  0  0  0
 14 44  1  6  0  0  0
 15 45  1  0  0  0  0
 16 17  1  0  0  0  0
 16 46  1  1  0  0  0
 17 18  1  0  0  0  0
 17 47  1  0  0  0  0
 17 48  1  0  0  0  0
 18 19  2  0  0  0  0
 18 49  1  0  0  0  0
 19 20  1  0  0  0  0
 19 50  1  0  0  0  0
 20 21  1  0  0  0  0
 20 51  1  0  0  0  0
 20 52  1  0  0  0  0
 21 22  1  0  0  0  0
 21 53  1  0  0  0  0
 21 54  1  0  0  0  0
 22 23  1  0  0  0  0
 22 55  1  0  0  0  0
 22 56  1  0  0  0  0
 23 24  2  0  0  0  0
 23 25  1  0  0  0  0
 25 57  1  0  0  0  0
M  END
$$$$
