CHEBI:18283
 OpenBabel04252409193D

 50 51  0  0  1  0  0  0  0  0999 V2000
   -0.1247   -4.5497    3.2787 O   0  0  0  0  0  0  0  0  0  0  0  0
   -0.4783   -3.5163    2.2668 P   0  0  0  0  0  0  0  0  0  0  0  0
   -1.5149   -4.0465    1.1766 O   0  0  0  0  0  0  0  0  0  0  0  0
   -1.2550   -2.2389    2.8192 O   0  0  0  0  0  0  0  0  0  0  0  0
    0.7177   -2.8902    1.4208 O   0  0  0  0  0  0  0  0  0  0  0  0
    1.5995   -3.7949    0.7619 C   0  0  0  0  0  0  0  0  0  0  0  0
    2.1868   -3.0884   -0.4637 C   0  0  1  0  0  0  0  0  0  0  0  0
    2.9656   -1.9713    0.0061 O   0  0  0  0  0  0  0  0  0  0  0  0
    3.5470   -1.1906   -1.0317 C   0  0  2  0  0  0  0  0  0  0  0  0
    2.5998   -0.5537   -1.8800 O   0  0  0  0  0  0  0  0  0  0  0  0
    1.6429    0.2615   -1.2032 C   0  0  1  0  0  0  0  0  0  0  0  0
    2.2399    1.3774   -0.5387 O   0  0  0  0  0  0  0  0  0  0  0  0
    2.9129    2.2936   -1.4074 C   0  0  2  0  0  0  0  0  0  0  0  0
    3.3362    3.4954   -0.5460 C   0  0  0  0  0  0  0  0  0  0  0  0
    3.9911    4.4862   -1.3325 O   0  0  0  0  0  0  0  0  0  0  0  0
    2.0518    2.7710   -2.5942 C   0  0  1  0  0  0  0  0  0  0  0  0
    2.8446    3.4458   -3.5815 O   0  0  0  0  0  0  0  0  0  0  0  0
    1.3358    1.6050   -3.2756 C   0  0  2  0  0  0  0  0  0  0  0  0
    0.3834    2.1074   -4.2292 O   0  0  0  0  0  0  0  0  0  0  0  0
    0.6073    0.7645   -2.2285 C   0  0  1  0  0  0  0  0  0  0  0  0
   -0.0940   -0.3095   -2.8655 O   0  0  0  0  0  0  0  0  0  0  0  0
    4.4772   -2.0658   -1.9061 C   0  0  2  0  0  0  0  0  0  0  0  0
    5.0618   -1.3680   -3.0183 O   0  0  0  0  0  0  0  0  0  0  0  0
    3.6896   -3.2594   -2.4524 C   0  0  1  0  0  0  0  0  0  0  0  0
    4.5622   -4.1396   -3.1816 O   0  0  0  0  0  0  0  0  0  0  0  0
    3.0471   -4.0381   -1.3026 C   0  0  2  0  0  0  0  0  0  0  0  0
    2.2698   -5.1143   -1.8311 O   0  0  0  0  0  0  0  0  0  0  0  0
   -2.0863   -4.7334    1.5679 H   0  0  0  0  0  0  0  0  0  0  0  0
   -1.4482   -1.6226    2.0905 H   0  0  0  0  0  0  0  0  0  0  0  0
    1.0564   -4.7001    0.4723 H   0  0  0  0  0  0  0  0  0  0  0  0
    2.3890   -4.0635    1.4722 H   0  0  0  0  0  0  0  0  0  0  0  0
    1.3475   -2.7070   -1.0595 H   0  0  0  0  0  0  0  0  0  0  0  0
    4.1574   -0.4102   -0.5639 H   0  0  0  0  0  0  0  0  0  0  0  0
    1.1174   -0.3411   -0.4546 H   0  0  0  0  0  0  0  0  0  0  0  0
    3.8253    1.8214   -1.7939 H   0  0  0  0  0  0  0  0  0  0  0  0
    2.4586    3.9488   -0.0695 H   0  0  0  0  0  0  0  0  0  0  0  0
    4.0086    3.1710    0.2557 H   0  0  0  0  0  0  0  0  0  0  0  0
    4.2163    5.2155   -0.7239 H   0  0  0  0  0  0  0  0  0  0  0  0
    1.2982    3.4909   -2.2512 H   0  0  0  0  0  0  0  0  0  0  0  0
    3.4170    4.0737   -3.0863 H   0  0  0  0  0  0  0  0  0  0  0  0
    2.0366    0.9934   -3.8570 H   0  0  0  0  0  0  0  0  0  0  0  0
    0.8977    2.7239   -4.7899 H   0  0  0  0  0  0  0  0  0  0  0  0
   -0.1476    1.3822   -1.7260 H   0  0  0  0  0  0  0  0  0  0  0  0
   -0.4897    0.0887   -3.6674 H   0  0  0  0  0  0  0  0  0  0  0  0
    5.3094   -2.4381   -1.2967 H   0  0  0  0  0  0  0  0  0  0  0  0
    5.1420   -0.4295   -2.7742 H   0  0  0  0  0  0  0  0  0  0  0  0
    2.9279   -2.9357   -3.1730 H   0  0  0  0  0  0  0  0  0  0  0  0
    5.0465   -3.5508   -3.7966 H   0  0  0  0  0  0  0  0  0  0  0  0
    3.8364   -4.4854   -0.6854 H   0  0  0  0  0  0  0  0  0  0  0  0
    2.8295   -5.5169   -2.5266 H   0  0  0  0  0  0  0  0  0  0  0  0
  1  2  2  0  0  0  0
  2  3  1  0  0  0  0
  2  4  1  0  0  0  0
  2  5  1  0  0  0  0
  3 28  1  0  0  0  0
  4 29  1  0  0  0  0
  5  6  1  0  0  0  0
  6 30  1  0  0  0  0
  6 31  1  0  0  0  0
  7  8  1  0  0  0  0
  7 26  1  0  0  0  0
  7  6  1  0  0  0  0
  7 32  1  6  0  0  0
  8  9  1  0  0  0  0
  9 10  1  0  0  0  0
  9 22  1  0  0  0  0
  9 33  1  1  0  0  0
 11 12  1  0  0  0  0
 11 20  1  0  0  0  0
 11 10  1  0  0  0  0
 11 34  1  1  0  0  0
 12 13  1  0  0  0  0
 13 16  1  0  0  0  0
 13 14  1  0  0  0  0
 13 35  1  6  0  0  0
 14 15  1  0  0  0  0
 14 36  1  0  0  0  0
 14 37  1  0  0  0  0
 15 38  1  0  0  0  0
 16 17  1  0  0  0  0
 16 18  1  0  0  0  0
 16 39  1  1  0  0  0
 17 40  1  0  0  0  0
 18 19  1  0  0  0  0
 18 20  1  0  0  0  0
 18 41  1  6  0  0  0
 19 42  1  0  0  0  0
 20 21  1  0  0  0  0
 20 43  1  1  0  0  0
 21 44  1  0  0  0  0
 22 23  1  0  0  0  0
 22 24  1  0  0  0  0
 22 45  1  1  0  0  0
 23 46  1  0  0  0  0
 24 25  1  0  0  0  0
 24 26  1  0  0  0  0
 24 47  1  6  0  0  0
 25 48  1  0  0  0  0
 26 27  1  0  0  0  0
 26 49  1  1  0  0  0
 27 50  1  0  0  0  0
M  END
$$$$
