CHEBI:18036
 OpenBabel04242423273D

 13 12  0  0  0  0  0  0  0  0999 V2000
    4.2190    2.5260   -0.1215 O   0  0  0  0  0  0  0  0  0  0  0  0
    3.4253    1.3077    0.3575 P   0  0  0  0  0  0  0  0  0  0  0  0
    3.2381    1.3656    1.8911 O   0  5  0  0  0  0  0  0  0  0  0  0
    2.0690    1.1638   -0.3352 O   0  5  0  0  0  0  0  0  0  0  0  0
    4.3001   -0.0445    0.0869 O   0  0  0  0  0  0  0  0  0  0  0  0
    4.8768   -0.8577   -1.3269 P   0  0  0  0  0  0  0  0  0  0  0  0
    6.3609   -0.6134   -0.8693 O   0  0  0  0  0  0  0  0  0  0  0  0
    4.3029   -2.2133   -0.7742 O   0  5  0  0  0  0  0  0  0  0  0  0
    5.4534   -1.6710   -2.7408 O   0  0  0  0  0  0  0  0  0  0  0  0
    5.1471   -1.5493   -4.3402 P   0  0  0  0  0  0  0  0  0  0  0  0
    3.6942   -1.9539   -4.6032 O   0  0  0  0  0  0  0  0  0  0  0  0
    5.4669   -0.1257   -4.7999 O   0  5  0  0  0  0  0  0  0  0  0  0
    6.1075   -2.5573   -5.0121 O   0  5  0  0  0  0  0  0  0  0  0  0
  1  2  2  0  0  0  0
  2  3  1  0  0  0  0
  2  4  1  0  0  0  0
  2  5  1  0  0  0  0
  5  6  1  0  0  0  0
  6  7  2  0  0  0  0
  6  8  1  0  0  0  0
  6  9  1  0  0  0  0
  9 10  1  0  0  0  0
 10 11  2  0  0  0  0
 10 12  1  0  0  0  0
 10 13  1  0  0  0  0
M  CHG  5   3  -1   4  -1   8  -1  12  -1  13  -1
M  END
$$$$
