CHEBI:17069
 OpenBabel04242415483D

 17 17  0  0  0  0  0  0  0  0999 V2000
    3.5361   -0.4528    0.8554 O   0  0  0  0  0  0  0  0  0  0  0  0
    2.4411   -0.0248    0.0609 C   0  0  0  0  0  0  0  0  0  0  0  0
    2.8415    1.2008   -0.7084 C   0  0  0  0  0  0  0  0  0  0  0  0
    3.6754    1.0946   -1.8315 C   0  0  0  0  0  0  0  0  0  0  0  0
    4.0540    2.2336   -2.5461 C   0  0  0  0  0  0  0  0  0  0  0  0
    3.6107    3.4926   -2.1421 C   0  0  0  0  0  0  0  0  0  0  0  0
    2.7942    3.6001   -1.0208 C   0  0  0  0  0  0  0  0  0  0  0  0
    2.3438    4.8117   -0.5848 O   0  0  0  0  0  0  0  0  0  0  0  0
    2.4104    2.4712   -0.3040 C   0  0  0  0  0  0  0  0  0  0  0  0
    3.2146   -1.1889    1.4007 H   0  0  0  0  0  0  0  0  0  0  0  0
    1.5857    0.1802    0.7136 H   0  0  0  0  0  0  0  0  0  0  0  0
    2.1584   -0.8309   -0.6247 H   0  0  0  0  0  0  0  0  0  0  0  0
    4.0409    0.1192   -2.1458 H   0  0  0  0  0  0  0  0  0  0  0  0
    4.7010    2.1368   -3.4140 H   0  0  0  0  0  0  0  0  0  0  0  0
    3.9143    4.3689   -2.7050 H   0  0  0  0  0  0  0  0  0  0  0  0
    2.7263    5.5021   -1.1502 H   0  0  0  0  0  0  0  0  0  0  0  0
    1.7810    2.5884    0.5743 H   0  0  0  0  0  0  0  0  0  0  0  0
  1  2  1  0  0  0  0
  1 10  1  0  0  0  0
  2  3  1  0  0  0  0
  2 11  1  0  0  0  0
  2 12  1  0  0  0  0
  3  4  1  0  0  0  0
  3  9  2  0  0  0  0
  4  5  2  0  0  0  0
  4 13  1  0  0  0  0
  5  6  1  0  0  0  0
  5 14  1  0  0  0  0
  6  7  2  0  0  0  0
  6 15  1  0  0  0  0
  7  8  1  0  0  0  0
  7  9  1  0  0  0  0
  8 16  1  0  0  0  0
  9 17  1  0  0  0  0
M  END
$$$$
