CHEBI:17371
 OpenBabel04242416253D

138141  0  0  1  0  0  0  0  0999 V2000
   13.4315    0.2745   -6.1062 C   0  0  0  0  0  0  0  0  0  0  0  0
   12.3571    1.1223   -5.4483 C   0  0  0  0  0  0  0  0  0  0  0  0
   12.8292    1.9228   -4.2151 C   0  0  1  0  0  0  0  0  0  0  0  0
   11.6847    2.6580   -3.7335 O   0  0  0  0  0  0  0  0  0  0  0  0
   11.3454    3.8133   -4.3680 C   0  0  0  0  0  0  0  0  0  0  0  0
   12.0563    4.4433   -5.1339 O   0  0  0  0  0  0  0  0  0  0  0  0
    9.8901    4.1070   -4.0875 C   0  0  0  0  0  0  0  0  0  0  0  0
    9.4925    5.5574   -4.3719 C   0  0  1  0  0  0  0  0  0  0  0  0
    9.7272    5.8165   -5.7636 O   0  0  0  0  0  0  0  0  0  0  0  0
    7.9745    5.8039   -4.0949 C   0  0  2  0  0  0  0  0  0  0  0  0
    7.5403    7.1430   -4.7272 C   0  0  0  0  0  0  0  0  0  0  0  0
    7.5909    5.7070   -2.5726 C   0  0  1  0  0  0  0  0  0  0  0  0
    7.4464    7.0433   -2.0554 O   0  0  0  0  0  0  0  0  0  0  0  0
    7.3855    7.1310   -0.6255 C   0  0  2  0  0  0  0  0  0  0  0  0
    6.0404    6.9965   -0.1898 O   0  0  0  0  0  0  0  0  0  0  0  0
    5.9275    7.1647    1.2219 C   0  0  2  0  0  0  0  0  0  0  0  0
    4.5606    6.6199    1.6285 C   0  0  0  0  0  0  0  0  0  0  0  0
    6.0834    8.6570    1.5741 C   0  0  1  0  0  0  0  0  0  0  0  0
    6.3207    8.8588    2.9772 O   0  0  0  0  0  0  0  0  0  0  0  0
    7.6460    8.7811    3.5004 C   0  0  1  0  0  0  0  0  0  0  0  0
    7.5375    9.2773    4.9400 C   0  0  0  0  0  0  0  0  0  0  0  0
    8.9002    9.2830    5.6218 C   0  0  1  0  0  0  0  0  0  0  0  0
    9.8267   10.3685    5.0646 C   0  0  0  0  0  0  0  0  0  0  0  0
    8.7161    9.5812    7.0230 O   0  0  0  0  0  0  0  0  0  0  0  0
    9.4997    7.8678    5.5397 C   0  0  1  0  0  0  0  0  0  0  0  0
    8.7703    7.0333    6.4640 O   0  0  0  0  0  0  0  0  0  0  0  0
    9.4057    7.2201    4.1423 C   0  0  2  0  0  0  0  0  0  0  0  0
   10.6157    7.5415    3.2692 C   0  0  0  0  0  0  0  0  0  0  0  0
    8.1730    7.4609    3.4294 O   0  0  0  0  0  0  0  0  0  0  0  0
    7.0240    9.4354    0.5836 C   0  0  2  0  0  0  0  0  0  0  0  0
    6.2722   10.4181   -0.2558 N   0  0  0  0  0  0  0  0  0  0  0  0
    7.1592   11.4029   -0.8790 C   0  0  0  0  0  0  0  0  0  0  0  0
    5.3964    9.8210   -1.2620 C   0  0  0  0  0  0  0  0  0  0  0  0
    7.9992    8.4754   -0.1629 C   0  0  1  0  0  0  0  0  0  0  0  0
    9.1080    8.1945    0.7204 O   0  0  0  0  0  0  0  0  0  0  0  0
    6.3063    4.8516   -2.2991 C   0  0  1  0  0  0  0  0  0  0  0  0
    5.1332    5.1953   -3.2348 C   0  0  0  0  0  0  0  0  0  0  0  0
    3.8153    4.6113   -2.7729 C   0  0  0  0  0  0  0  0  0  0  0  0
    3.5697    4.2657   -1.6219 O   0  0  0  0  0  0  0  0  0  0  0  0
    6.6155    3.3295   -2.2792 C   0  0  0  0  0  0  0  0  0  0  0  0
    6.9127    2.8189   -0.8416 C   0  0  1  0  0  0  0  0  0  0  0  0
    5.9663    1.6850   -0.4447 C   0  0  0  0  0  0  0  0  0  0  0  0
    8.3665    2.3970   -0.6592 C   0  0  0  0  0  0  0  0  0  0  0  0
    9.1478    3.0499    0.0308 O   0  0  0  0  0  0  0  0  0  0  0  0
    8.8498    1.2136   -1.4265 C   0  0  0  0  0  0  0  0  0  0  0  0
   10.5882    0.7999   -1.4310 C   0  0  0  0  0  0  0  0  0  0  0  0
   11.3606   -0.3605   -2.0369 C   0  0  0  0  0  0  0  0  0  0  0  0
   10.5882    0.7999   -1.4310 C   0  0  0  0  0  0  0  0  0  0  0  0
   12.5628   -0.1395   -2.6340 C   0  0  0  0  0  0  0  0  0  0  0  0
   13.4235    1.0433   -3.0702 C   0  0  2  0  0  0  0  0  0  0  0  0
   13.9990    1.8859   -1.9218 C   0  0  0  0  0  0  0  0  0  0  0  0
   14.8565    1.0688   -1.1189 O   0  0  0  0  0  0  0  0  0  0  0  0
   15.6954    1.7961   -0.2073 C   0  0  2  0  0  0  0  0  0  0  0  0
   16.6334    0.8440    0.3136 O   0  0  0  0  0  0  0  0  0  0  0  0
   17.5663    1.4108    1.2371 C   0  0  2  0  0  0  0  0  0  0  0  0
   18.5674    0.3246    1.6212 C   0  0  0  0  0  0  0  0  0  0  0  0
   16.8223    1.9397    2.4711 C   0  0  1  0  0  0  0  0  0  0  0  0
   17.7255    2.5543    3.3939 O   0  0  0  0  0  0  0  0  0  0  0  0
   15.7794    2.9708    2.0419 C   0  0  1  0  0  0  0  0  0  0  0  0
   16.4718    4.1540    1.5852 O   0  0  0  0  0  0  0  0  0  0  0  0
   14.8631    2.4389    0.9361 C   0  0  1  0  0  0  0  0  0  0  0  0
   14.0853    3.5446    0.4222 O   0  0  0  0  0  0  0  0  0  0  0  0
   12.9758    3.8907    1.2451 C   0  0  0  0  0  0  0  0  0  0  0  0
   13.0513   -0.1465   -7.0429 H   0  0  0  0  0  0  0  0  0  0  0  0
   13.7301   -0.5632   -5.4700 H   0  0  0  0  0  0  0  0  0  0  0  0
   14.3179    0.8721   -6.3384 H   0  0  0  0  0  0  0  0  0  0  0  0
   11.4976    0.4931   -5.1855 H   0  0  0  0  0  0  0  0  0  0  0  0
   11.9696    1.8251   -6.1973 H   0  0  0  0  0  0  0  0  0  0  0  0
   13.6069    2.6314   -4.5297 H   0  0  0  0  0  0  0  0  0  0  0  0
    9.6957    3.8571   -3.0429 H   0  0  0  0  0  0  0  0  0  0  0  0
    9.3144    3.4301   -4.7316 H   0  0  0  0  0  0  0  0  0  0  0  0
   10.1054    6.2580   -3.7934 H   0  0  0  0  0  0  0  0  0  0  0  0
   10.6922    5.7414   -5.9187 H   0  0  0  0  0  0  0  0  0  0  0  0
    7.4497    5.0136   -4.6459 H   0  0  0  0  0  0  0  0  0  0  0  0
    8.1801    7.9668   -4.3917 H   0  0  0  0  0  0  0  0  0  0  0  0
    6.5055    7.3949   -4.4811 H   0  0  0  0  0  0  0  0  0  0  0  0
    7.5988    7.0998   -5.8202 H   0  0  0  0  0  0  0  0  0  0  0  0
    8.4253    5.2509   -2.0295 H   0  0  0  0  0  0  0  0  0  0  0  0
    7.9705    6.3035   -0.2022 H   0  0  0  0  0  0  0  0  0  0  0  0
    6.6780    6.5460    1.7242 H   0  0  0  0  0  0  0  0  0  0  0  0
    4.4902    5.5555    1.3750 H   0  0  0  0  0  0  0  0  0  0  0  0
    3.7569    7.1191    1.0751 H   0  0  0  0  0  0  0  0  0  0  0  0
    4.3808    6.7356    2.7007 H   0  0  0  0  0  0  0  0  0  0  0  0
    5.0866    9.1008    1.4519 H   0  0  0  0  0  0  0  0  0  0  0  0
    8.2993    9.4532    2.9468 H   0  0  0  0  0  0  0  0  0  0  0  0
    6.8423    8.6375    5.5020 H   0  0  0  0  0  0  0  0  0  0  0  0
    7.0813   10.2754    4.9709 H   0  0  0  0  0  0  0  0  0  0  0  0
    9.4176   11.3649    5.2705 H   0  0  0  0  0  0  0  0  0  0  0  0
    9.9874   10.2995    3.9882 H   0  0  0  0  0  0  0  0  0  0  0  0
   10.8054   10.3310    5.5554 H   0  0  0  0  0  0  0  0  0  0  0  0
    8.2765   10.4487    7.0886 H   0  0  0  0  0  0  0  0  0  0  0  0
   10.5326    7.8619    5.9068 H   0  0  0  0  0  0  0  0  0  0  0  0
    8.6232    7.6059    7.2466 H   0  0  0  0  0  0  0  0  0  0  0  0
    9.4231    6.1322    4.2884 H   0  0  0  0  0  0  0  0  0  0  0  0
   10.5904    8.5603    2.8790 H   0  0  0  0  0  0  0  0  0  0  0  0
   10.6363    6.8722    2.4020 H   0  0  0  0  0  0  0  0  0  0  0  0
   11.5533    7.3964    3.8143 H   0  0  0  0  0  0  0  0  0  0  0  0
    7.6431   10.0843    1.2097 H   0  0  0  0  0  0  0  0  0  0  0  0
    6.5716   12.2200   -1.3122 H   0  0  0  0  0  0  0  0  0  0  0  0
    7.7764   10.9727   -1.6743 H   0  0  0  0  0  0  0  0  0  0  0  0
    7.8222   11.8617   -0.1369 H   0  0  0  0  0  0  0  0  0  0  0  0
    4.8259   10.6050   -1.7740 H   0  0  0  0  0  0  0  0  0  0  0  0
    4.6510    9.1617   -0.8080 H   0  0  0  0  0  0  0  0  0  0  0  0
    5.9488    9.2637   -2.0237 H   0  0  0  0  0  0  0  0  0  0  0  0
    8.4657    8.9817   -1.0126 H   0  0  0  0  0  0  0  0  0  0  0  0
    8.7719    7.6109    1.4300 H   0  0  0  0  0  0  0  0  0  0  0  0
    5.9379    5.0876   -1.3025 H   0  0  0  0  0  0  0  0  0  0  0  0
    5.3118    4.8155   -4.2453 H   0  0  0  0  0  0  0  0  0  0  0  0
    4.9799    6.2777   -3.2908 H   0  0  0  0  0  0  0  0  0  0  0  0
    3.0395    4.5388   -3.5541 H   0  0  0  0  0  0  0  0  0  0  0  0
    7.4426    3.1100   -2.9608 H   0  0  0  0  0  0  0  0  0  0  0  0
    5.7575    2.7777   -2.6810 H   0  0  0  0  0  0  0  0  0  0  0  0
    6.7522    3.6193   -0.1076 H   0  0  0  0  0  0  0  0  0  0  0  0
    5.9879    0.8620   -1.1664 H   0  0  0  0  0  0  0  0  0  0  0  0
    4.9358    2.0514   -0.3879 H   0  0  0  0  0  0  0  0  0  0  0  0
    6.2336    1.2765    0.5356 H   0  0  0  0  0  0  0  0  0  0  0  0
    8.1836    0.6749   -2.1003 H   0  0  0  0  0  0  0  0  0  0  0  0
   11.2862    1.2534   -0.1367 H   0  0  0  0  0  0  0  0  0  0  0  0
   10.0226    0.8935   -2.8927 H   0  0  0  0  0  0  0  0  0  0  0  0
    9.9655    0.0793   -0.1907 H   0  0  0  0  0  0  0  0  0  0  0  0
   11.1689    2.2487   -1.4325 H   0  0  0  0  0  0  0  0  0  0  0  0
   13.0120   -1.0765   -2.9790 H   0  0  0  0  0  0  0  0  0  0  0  0
   14.3108    0.5651   -3.5142 H   0  0  0  0  0  0  0  0  0  0  0  0
   14.5792    2.7201   -2.3333 H   0  0  0  0  0  0  0  0  0  0  0  0
   13.1981    2.2846   -1.3068 H   0  0  0  0  0  0  0  0  0  0  0  0
   16.2476    2.5542   -0.7776 H   0  0  0  0  0  0  0  0  0  0  0  0
   18.1267    2.2149    0.7429 H   0  0  0  0  0  0  0  0  0  0  0  0
   18.0589   -0.5414    2.0590 H   0  0  0  0  0  0  0  0  0  0  0  0
   19.3100    0.6934    2.3356 H   0  0  0  0  0  0  0  0  0  0  0  0
   19.0958   -0.0374    0.7326 H   0  0  0  0  0  0  0  0  0  0  0  0
   16.3172    1.1121    2.9836 H   0  0  0  0  0  0  0  0  0  0  0  0
   17.8895    3.4519    3.0379 H   0  0  0  0  0  0  0  0  0  0  0  0
   15.1955    3.2938    2.9104 H   0  0  0  0  0  0  0  0  0  0  0  0
   15.8032    4.6782    1.0982 H   0  0  0  0  0  0  0  0  0  0  0  0
   14.1945    1.6652    1.3357 H   0  0  0  0  0  0  0  0  0  0  0  0
   12.2636    4.4500    0.6322 H   0  0  0  0  0  0  0  0  0  0  0  0
   13.3090    4.5344    2.0630 H   0  0  0  0  0  0  0  0  0  0  0  0
   12.4712    3.0038    1.6390 H   0  0  0  0  0  0  0  0  0  0  0  0
  1  2  1  0  0  0  0
  1 64  1  0  0  0  0
  1 65  1  0  0  0  0
  1 66  1  0  0  0  0
  2  3  1  0  0  0  0
  2 67  1  0  0  0  0
  2 68  1  0  0  0  0
  3  4  1  0  0  0  0
  3 50  1  0  0  0  0
  3 69  1  6  0  0  0
  4  5  1  0  0  0  0
  5  6  2  0  0  0  0
  5  7  1  0  0  0  0
  7  8  1  0  0  0  0
  7 70  1  0  0  0  0
  7 71  1  0  0  0  0
  8  9  1  0  0  0  0
  8 10  1  0  0  0  0
  8 72  1  1  0  0  0
  9 73  1  0  0  0  0
 10 12  1  0  0  0  0
 10 11  1  0  0  0  0
 10 74  1  6  0  0  0
 11 75  1  0  0  0  0
 11 76  1  0  0  0  0
 11 77  1  0  0  0  0
 12 13  1  0  0  0  0
 12 36  1  0  0  0  0
 12 78  1  1  0  0  0
 14 15  1  0  0  0  0
 14 34  1  0  0  0  0
 14 13  1  0  0  0  0
 14 79  1  1  0  0  0
 15 16  1  0  0  0  0
 16 17  1  0  0  0  0
 16 18  1  0  0  0  0
 16 80  1  1  0  0  0
 17 81  1  0  0  0  0
 17 82  1  0  0  0  0
 17 83  1  0  0  0  0
 18 19  1  0  0  0  0
 18 30  1  0  0  0  0
 18 84  1  6  0  0  0
 20 21  1  0  0  0  0
 20 29  1  0  0  0  0
 20 19  1  0  0  0  0
 20 85  1  6  0  0  0
 21 22  1  0  0  0  0
 21 86  1  0  0  0  0
 21 87  1  0  0  0  0
 22 23  1  0  0  0  0
 22 24  1  1  0  0  0
 22 25  1  0  0  0  0
 23 88  1  0  0  0  0
 23 89  1  0  0  0  0
 23 90  1  0  0  0  0
 24 91  1  0  0  0  0
 25 26  1  0  0  0  0
 25 27  1  0  0  0  0
 25 92  1  1  0  0  0
 26 93  1  0  0  0  0
 27 29  1  0  0  0  0
 27 28  1  0  0  0  0
 27 94  1  1  0  0  0
 28 95  1  0  0  0  0
 28 96  1  0  0  0  0
 28 97  1  0  0  0  0
 30 34  1  0  0  0  0
 30 31  1  0  0  0  0
 30 98  1  1  0  0  0
 31 32  1  0  0  0  0
 31 33  1  0  0  0  0
 32 99  1  0  0  0  0
 32100  1  0  0  0  0
 32101  1  0  0  0  0
 33102  1  0  0  0  0
 33103  1  0  0  0  0
 33104  1  0  0  0  0
 34 35  1  0  0  0  0
 34105  1  6  0  0  0
 35106  1  0  0  0  0
 36 37  1  0  0  0  0
 36 40  1  0  0  0  0
 36107  1  1  0  0  0
 37 38  1  0  0  0  0
 37108  1  0  0  0  0
 37109  1  0  0  0  0
 38 39  2  0  0  0  0
 38110  1  0  0  0  0
 40 41  1  0  0  0  0
 40111  1  0  0  0  0
 40112  1  0  0  0  0
 41 42  1  0  0  0  0
 41 43  1  0  0  0  0
 41113  1  1  0  0  0
 42114  1  0  0  0  0
 42115  1  0  0  0  0
 42116  1  0  0  0  0
 43 44  2  0  0  0  0
 43 45  1  0  0  0  0
 45 46  2  0  0  0  0
 45117  1  0  0  0  0
 46 47  1  0  0  0  0
 46118  1  0  0  0  0
 47 48  1  0  0  0  0
 47 49  2  0  0  0  0
 48119  1  0  0  0  0
 48120  1  0  0  0  0
 48121  1  0  0  0  0
 49 50  1  0  0  0  0
 49122  1  0  0  0  0
 50 51  1  0  0  0  0
 50123  1  6  0  0  0
 51 52  1  0  0  0  0
 51124  1  0  0  0  0
 51125  1  0  0  0  0
 53 54  1  0  0  0  0
 53 61  1  0  0  0  0
 53 52  1  0  0  0  0
 53126  1  6  0  0  0
 54 55  1  0  0  0  0
 55 56  1  0  0  0  0
 55 57  1  0  0  0  0
 55127  1  6  0  0  0
 56128  1  0  0  0  0
 56129  1  0  0  0  0
 56130  1  0  0  0  0
 57 58  1  0  0  0  0
 57 59  1  0  0  0  0
 57131  1  1  0  0  0
 58132  1  0  0  0  0
 59 60  1  0  0  0  0
 59 61  1  0  0  0  0
 59133  1  1  0  0  0
 60134  1  0  0  0  0
 61 62  1  0  0  0  0
 61135  1  1  0  0  0
 62 63  1  0  0  0  0
 63136  1  0  0  0  0
 63137  1  0  0  0  0
 63138  1  0  0  0  0
M  END
$$$$
