CHEBI:3139
 OpenBabel04242410453D

180185  0  0  1  0  0  0  0  0999 V2000
   -8.7320    3.2340   -3.9277 C   0  0  0  0  0  0  0  0  0  0  0  0
   -7.7739    2.1048   -3.7539 C   0  0  0  0  0  0  0  0  0  0  0  0
   -8.0296    1.0607   -2.8854 C   0  0  0  0  0  0  0  0  0  0  0  0
   -9.3110    0.7705   -2.4249 N   0  0  0  0  0  0  0  0  0  0  0  0
   -7.0788    0.2656   -2.3923 N   0  0  0  0  0  0  0  0  0  0  0  0
   -5.8128    0.5507   -2.7192 C   0  0  0  0  0  0  0  0  0  0  0  0
   -4.7662    0.1518   -1.6528 C   0  0  2  0  0  0  0  0  0  0  0  0
   -4.1418    1.4042   -1.0116 C   0  0  0  0  0  0  0  0  0  0  0  0
   -5.1809    2.4126   -0.5926 C   0  0  0  0  0  0  0  0  0  0  0  0
   -5.2261    3.5375   -1.3619 N   0  0  0  0  0  0  0  0  0  0  0  0
   -5.9387    2.2514    0.3561 O   0  0  0  0  0  0  0  0  0  0  0  0
   -3.6319   -0.7054   -2.0810 N   0  0  0  0  0  0  0  0  0  0  0  0
   -3.9872   -2.1056   -2.3679 C   0  0  0  0  0  0  0  0  0  0  0  0
   -3.7497   -2.4072   -3.8586 C   0  0  2  0  0  0  0  0  0  0  0  0
   -4.8012   -1.8323   -4.7350 N   0  0  0  0  0  0  0  0  0  0  0  0
   -3.6494   -3.9138   -4.1327 C   0  0  0  0  0  0  0  0  0  0  0  0
   -3.3204   -4.1959   -5.4343 N   0  0  0  0  0  0  0  0  0  0  0  0
   -3.8118   -4.7995   -3.3025 O   0  0  0  0  0  0  0  0  0  0  0  0
   -5.4995    1.3459   -3.7636 N   0  0  0  0  0  0  0  0  0  0  0  0
   -6.5245    2.0590   -4.3351 C   0  0  0  0  0  0  0  0  0  0  0  0
   -6.1513    2.8696   -5.5751 C   0  0  0  0  0  0  0  0  0  0  0  0
   -4.9743    3.2135   -5.6774 O   0  0  0  0  0  0  0  0  0  0  0  0
   -7.1194    3.1783   -6.5797 N   0  0  0  0  0  0  0  0  0  0  0  0
   -6.7514    4.0977   -7.7252 C   0  0  2  0  0  0  0  0  0  0  0  0
   -6.8053    5.6166   -7.2821 C   0  0  0  0  0  0  0  0  0  0  0  0
   -5.7789    6.1479   -6.8180 O   0  0  0  0  0  0  0  0  0  0  0  0
   -7.8679    6.4467   -7.1606 N   0  0  0  0  0  0  0  0  0  0  0  0
   -9.2923    6.4965   -7.4645 C   0  0  2  0  0  0  0  0  0  0  0  0
   -9.9491    5.1170   -7.5365 C   0  0  0  0  0  0  0  0  0  0  0  0
   -9.6603    7.6223   -8.5350 C   0  0  1  0  0  0  0  0  0  0  0  0
  -11.0201    7.3937   -8.9848 O   0  0  0  0  0  0  0  0  0  0  0  0
   -8.7495    7.8259   -9.7970 C   0  0  2  0  0  0  0  0  0  0  0  0
   -8.3763    6.4766  -10.2421 C   0  0  0  0  0  0  0  0  0  0  0  0
   -7.4793    8.6927   -9.6993 C   0  0  0  0  0  0  0  0  0  0  0  0
   -7.3792    9.5139   -8.7810 O   0  0  0  0  0  0  0  0  0  0  0  0
   -6.4593    8.6774  -10.6431 N   0  0  0  0  0  0  0  0  0  0  0  0
   -6.0662    7.7504  -11.7692 C   0  0  2  0  0  0  0  0  0  0  0  0
   -4.5347    7.7320  -12.1696 C   0  0  0  0  0  0  0  0  0  0  0  0
   -4.1525    7.2356  -13.2319 O   0  0  0  0  0  0  0  0  0  0  0  0
   -3.5942    8.1061  -11.2298 N   0  0  0  0  0  0  0  0  0  0  0  0
   -2.1625    7.7576  -11.4024 C   0  0  0  0  0  0  0  0  0  0  0  0
   -1.4466    8.2794  -12.6576 C   0  0  0  0  0  0  0  0  0  0  0  0
    0.0253    7.9182  -12.6865 C   0  0  0  0  0  0  0  0  0  0  0  0
    0.8259    7.8550  -11.6394 N   0  0  0  0  0  0  0  0  0  0  0  0
    2.1501    7.6814  -12.0534 C   0  0  0  0  0  0  0  0  0  0  0  0
    3.3257    7.7425  -11.1046 C   0  0  0  0  0  0  0  0  0  0  0  0
    4.5785    7.7455  -11.5198 N   0  0  0  0  0  0  0  0  0  0  0  0
    5.4624    8.0186  -10.4602 C   0  0  0  0  0  0  0  0  0  0  0  0
    6.8829    8.2912  -10.7346 C   0  0  0  0  0  0  0  0  0  0  0  0
    7.2561    8.7307  -11.8242 O   0  0  0  0  0  0  0  0  0  0  0  0
    7.8669    8.0898   -9.7928 N   0  0  0  0  0  0  0  0  0  0  0  0
    7.9002    7.2909   -8.5834 C   0  0  0  0  0  0  0  0  0  0  0  0
    7.7372    5.7874   -8.8075 C   0  0  0  0  0  0  0  0  0  0  0  0
    9.0269    4.9759   -8.9057 C   0  0  0  0  0  0  0  0  0  0  0  0
    9.9505    4.8318  -10.4496 S   0  3  0  0  0  0  0  0  0  0  0  0
   10.5929    6.4973  -10.6239 C   0  0  0  0  0  0  0  0  0  0  0  0
    8.6225    4.9264  -11.6585 C   0  0  0  0  0  0  0  0  0  0  0  0
    4.8213    8.1353   -9.2409 C   0  0  0  0  0  0  0  0  0  0  0  0
    3.1308    7.9001   -9.4082 S   0  0  0  0  0  0  0  0  0  0  0  0
    2.3164    7.5254  -13.4145 C   0  0  0  0  0  0  0  0  0  0  0  0
    0.7998    7.6313  -14.2045 S   0  0  0  0  0  0  0  0  0  0  0  0
   -6.9008    7.9194  -13.0981 C   0  0  1  0  0  0  0  0  0  0  0  0
   -6.7290    6.7415  -14.0807 C   0  0  0  0  0  0  0  0  0  0  0  0
   -8.3018    8.1091  -12.8487 O   0  0  0  0  0  0  0  0  0  0  0  0
   -6.8928    3.5970   -9.3262 C   0  0  1  0  0  0  0  0  0  0  0  0
   -8.1561    3.8126  -10.0541 O   0  0  0  0  0  0  0  0  0  0  0  0
   -8.1738    3.8439  -11.5291 C   0  0  2  0  0  0  0  0  0  0  0  0
   -9.2712    4.6848  -12.0284 O   0  0  0  0  0  0  0  0  0  0  0  0
  -10.1717    4.2650  -13.0727 C   0  0  1  0  0  0  0  0  0  0  0  0
  -11.1727    5.3777  -13.4273 C   0  0  0  0  0  0  0  0  0  0  0  0
  -10.5301    6.4955  -14.0242 O   0  0  0  0  0  0  0  0  0  0  0  0
   -9.5231    3.5219  -14.2269 C   0  0  1  0  0  0  0  0  0  0  0  0
   -9.1518    4.3618  -15.3275 O   0  0  0  0  0  0  0  0  0  0  0  0
   -8.2696    2.7912  -13.7356 C   0  0  2  0  0  0  0  0  0  0  0  0
   -8.0051    1.6622  -14.5648 O   0  0  0  0  0  0  0  0  0  0  0  0
   -8.2015    2.4813  -12.2045 C   0  0  2  0  0  0  0  0  0  0  0  0
   -9.0489    1.5216  -11.5666 O   0  0  0  0  0  0  0  0  0  0  0  0
  -10.4477    1.6291  -11.3071 C   0  0  1  0  0  0  0  0  0  0  0  0
  -10.8725    0.2912  -11.0099 O   0  0  0  0  0  0  0  0  0  0  0  0
  -11.0639   -0.0082   -9.6308 C   0  0  2  0  0  0  0  0  0  0  0  0
  -11.4738   -1.4792   -9.5610 C   0  0  0  0  0  0  0  0  0  0  0  0
  -10.3813   -2.2902   -9.9853 O   0  0  0  0  0  0  0  0  0  0  0  0
  -12.1440    0.8551   -8.9446 C   0  0  1  0  0  0  0  0  0  0  0  0
  -11.7124    1.0748   -7.5768 O   0  0  0  0  0  0  0  0  0  0  0  0
  -12.2544    2.2385   -9.5657 C   0  0  2  0  0  0  0  0  0  0  0  0
  -13.3510    2.5513  -10.4700 O   0  0  0  0  0  0  0  0  0  0  0  0
  -13.7060    1.7858  -11.5063 C   0  0  0  0  0  0  0  0  0  0  0  0
  -14.3907    2.5274  -12.4033 N   0  0  0  0  0  0  0  0  0  0  0  0
  -13.4260    0.6105  -11.6774 O   0  0  0  0  0  0  0  0  0  0  0  0
  -10.9071    2.6240  -10.1668 C   0  0  2  0  0  0  0  0  0  0  0  0
  -11.0885    4.0050  -10.4899 O   0  0  0  0  0  0  0  0  0  0  0  0
   -5.6367    4.0881  -10.0407 C   0  0  0  0  0  0  0  0  0  0  0  0
   -4.9099    3.5509  -11.0859 C   0  0  0  0  0  0  0  0  0  0  0  0
   -3.7268    4.2454  -11.1008 N   0  0  0  0  0  0  0  0  0  0  0  0
   -3.7560    5.1021  -10.0444 C   0  0  0  0  0  0  0  0  0  0  0  0
   -4.9570    5.1694   -9.5341 N   0  0  0  0  0  0  0  0  0  0  0  0
   -9.4617    3.0338   -4.7114 H   0  0  0  0  0  0  0  0  0  0  0  0
   -9.2634    3.4291   -2.9876 H   0  0  0  0  0  0  0  0  0  0  0  0
   -8.1946    4.1664   -4.1389 H   0  0  0  0  0  0  0  0  0  0  0  0
   -9.2180   -0.0458   -1.8203 H   0  0  0  0  0  0  0  0  0  0  0  0
   -9.7058    1.5407   -1.8975 H   0  0  0  0  0  0  0  0  0  0  0  0
   -5.3033   -0.3777   -0.8518 H   0  0  0  0  0  0  0  0  0  0  0  0
   -3.5763    1.1321   -0.1090 H   0  0  0  0  0  0  0  0  0  0  0  0
   -3.4228    1.8780   -1.6919 H   0  0  0  0  0  0  0  0  0  0  0  0
   -4.7421    3.5961   -2.2527 H   0  0  0  0  0  0  0  0  0  0  0  0
   -5.9294    4.2323   -1.1539 H   0  0  0  0  0  0  0  0  0  0  0  0
   -2.9579   -0.7256   -1.3120 H   0  0  0  0  0  0  0  0  0  0  0  0
   -5.0047   -2.3654   -2.0499 H   0  0  0  0  0  0  0  0  0  0  0  0
   -3.3229   -2.7433   -1.7678 H   0  0  0  0  0  0  0  0  0  0  0  0
   -2.7844   -1.9789   -4.1602 H   0  0  0  0  0  0  0  0  0  0  0  0
   -5.7093   -2.0812   -4.3359 H   0  0  0  0  0  0  0  0  0  0  0  0
   -4.7456   -0.8140   -4.6268 H   0  0  0  0  0  0  0  0  0  0  0  0
   -3.5298   -3.4770   -6.1198 H   0  0  0  0  0  0  0  0  0  0  0  0
   -3.3528   -5.1619   -5.7247 H   0  0  0  0  0  0  0  0  0  0  0  0
   -8.0910    2.9473   -6.4405 H   0  0  0  0  0  0  0  0  0  0  0  0
   -5.6618    3.9711   -7.6559 H   0  0  0  0  0  0  0  0  0  0  0  0
   -7.5212    7.3301   -6.7925 H   0  0  0  0  0  0  0  0  0  0  0  0
   -9.7316    6.9057   -6.5413 H   0  0  0  0  0  0  0  0  0  0  0  0
  -11.0167    5.1598   -7.7686 H   0  0  0  0  0  0  0  0  0  0  0  0
   -9.8605    4.6097   -6.5682 H   0  0  0  0  0  0  0  0  0  0  0  0
   -9.4688    4.4655   -8.2567 H   0  0  0  0  0  0  0  0  0  0  0  0
   -9.7005    8.5776   -8.0012 H   0  0  0  0  0  0  0  0  0  0  0  0
  -11.0605    6.5460   -9.4658 H   0  0  0  0  0  0  0  0  0  0  0  0
   -9.3791    8.2994  -10.5615 H   0  0  0  0  0  0  0  0  0  0  0  0
   -7.4675    6.1425   -9.7537 H   0  0  0  0  0  0  0  0  0  0  0  0
   -8.2215    6.4561  -11.3077 H   0  0  0  0  0  0  0  0  0  0  0  0
   -9.1890    5.8055  -10.0151 H   0  0  0  0  0  0  0  0  0  0  0  0
   -5.7837    9.4021  -10.4386 H   0  0  0  0  0  0  0  0  0  0  0  0
   -6.2163    6.7419  -11.3852 H   0  0  0  0  0  0  0  0  0  0  0  0
   -3.9353    8.1160  -10.2714 H   0  0  0  0  0  0  0  0  0  0  0  0
   -2.0892    6.6665  -11.4231 H   0  0  0  0  0  0  0  0  0  0  0  0
   -1.6535    8.1031  -10.4964 H   0  0  0  0  0  0  0  0  0  0  0  0
   -1.5426    9.3684  -12.7133 H   0  0  0  0  0  0  0  0  0  0  0  0
   -1.9196    7.8703  -13.5568 H   0  0  0  0  0  0  0  0  0  0  0  0
    8.7594    8.4009  -10.1537 H   0  0  0  0  0  0  0  0  0  0  0  0
    7.1181    7.6516   -7.9148 H   0  0  0  0  0  0  0  0  0  0  0  0
    8.8490    7.5089   -8.0801 H   0  0  0  0  0  0  0  0  0  0  0  0
    7.0399    5.5644   -9.6184 H   0  0  0  0  0  0  0  0  0  0  0  0
    7.2414    5.4151   -7.8986 H   0  0  0  0  0  0  0  0  0  0  0  0
    8.7606    3.9368   -8.6724 H   0  0  0  0  0  0  0  0  0  0  0  0
    9.7345    5.2786   -8.1253 H   0  0  0  0  0  0  0  0  0  0  0  0
    9.9749    7.1047  -11.2861 H   0  0  0  0  0  0  0  0  0  0  0  0
   11.5882    6.4269  -11.0719 H   0  0  0  0  0  0  0  0  0  0  0  0
   10.6973    6.9796   -9.6499 H   0  0  0  0  0  0  0  0  0  0  0  0
    8.0180    5.8246  -11.5428 H   0  0  0  0  0  0  0  0  0  0  0  0
    7.9888    4.0413  -11.5646 H   0  0  0  0  0  0  0  0  0  0  0  0
    9.0627    4.9390  -12.6591 H   0  0  0  0  0  0  0  0  0  0  0  0
    5.2228    8.4049   -8.2780 H   0  0  0  0  0  0  0  0  0  0  0  0
    3.2376    7.3886  -13.9662 H   0  0  0  0  0  0  0  0  0  0  0  0
   -6.5734    8.8350  -13.6021 H   0  0  0  0  0  0  0  0  0  0  0  0
   -5.9272    6.9453  -14.7982 H   0  0  0  0  0  0  0  0  0  0  0  0
   -7.6283    6.5430  -14.6704 H   0  0  0  0  0  0  0  0  0  0  0  0
   -6.4716    5.8140  -13.5583 H   0  0  0  0  0  0  0  0  0  0  0  0
   -8.8112    7.4104  -13.3074 H   0  0  0  0  0  0  0  0  0  0  0  0
   -6.8027    2.5039   -9.2737 H   0  0  0  0  0  0  0  0  0  0  0  0
   -7.2966    4.4009  -11.8610 H   0  0  0  0  0  0  0  0  0  0  0  0
  -10.8483    3.5517  -12.6421 H   0  0  0  0  0  0  0  0  0  0  0  0
  -11.9366    4.9990  -14.1190 H   0  0  0  0  0  0  0  0  0  0  0  0
  -11.6856    5.7203  -12.5203 H   0  0  0  0  0  0  0  0  0  0  0  0
  -11.0654    7.2751  -13.7695 H   0  0  0  0  0  0  0  0  0  0  0  0
  -10.2423    2.8072  -14.6461 H   0  0  0  0  0  0  0  0  0  0  0  0
   -9.8030    5.0898  -15.4029 H   0  0  0  0  0  0  0  0  0  0  0  0
   -7.4232    3.4674  -13.9398 H   0  0  0  0  0  0  0  0  0  0  0  0
   -7.9346    2.0202  -15.4741 H   0  0  0  0  0  0  0  0  0  0  0  0
   -7.2179    2.0252  -12.0557 H   0  0  0  0  0  0  0  0  0  0  0  0
  -10.9473    1.8130  -12.2545 H   0  0  0  0  0  0  0  0  0  0  0  0
  -10.0907    0.1059   -9.1331 H   0  0  0  0  0  0  0  0  0  0  0  0
  -12.3200   -1.6816  -10.2265 H   0  0  0  0  0  0  0  0  0  0  0  0
  -11.7427   -1.7713   -8.5421 H   0  0  0  0  0  0  0  0  0  0  0  0
  -10.0887   -1.9030  -10.8349 H   0  0  0  0  0  0  0  0  0  0  0  0
  -13.1230    0.3701   -8.9054 H   0  0  0  0  0  0  0  0  0  0  0  0
  -11.3694    0.2408   -7.2101 H   0  0  0  0  0  0  0  0  0  0  0  0
  -12.4437    2.9532   -8.7516 H   0  0  0  0  0  0  0  0  0  0  0  0
  -14.6156    3.4887  -12.1918 H   0  0  0  0  0  0  0  0  0  0  0  0
  -14.7271    2.0973  -13.2523 H   0  0  0  0  0  0  0  0  0  0  0  0
  -10.1542    2.5853   -9.3734 H   0  0  0  0  0  0  0  0  0  0  0  0
  -10.2022    4.3682  -10.6601 H   0  0  0  0  0  0  0  0  0  0  0  0
   -5.0704    2.7180  -11.7530 H   0  0  0  0  0  0  0  0  0  0  0  0
   -2.9371    4.0888  -11.7132 H   0  0  0  0  0  0  0  0  0  0  0  0
   -2.8974    5.6611   -9.6979 H   0  0  0  0  0  0  0  0  0  0  0  0
  1  2  1  0  0  0  0
  1 97  1  0  0  0  0
  1 98  1  0  0  0  0
  1 99  1  0  0  0  0
  2  3  1  0  0  0  0
  2 20  2  0  0  0  0
  3  4  1  0  0  0  0
  3  5  2  0  0  0  0
  4100  1  0  0  0  0
  4101  1  0  0  0  0
  5  6  1  0  0  0  0
  6 19  2  0  0  0  0
  7 12  1  0  0  0  0
  7  8  1  0  0  0  0
  7  6  1  0  0  0  0
  7102  1  1  0  0  0
  8  9  1  0  0  0  0
  8103  1  0  0  0  0
  8104  1  0  0  0  0
  9 10  1  0  0  0  0
  9 11  2  0  0  0  0
 10105  1  0  0  0  0
 10106  1  0  0  0  0
 12 13  1  0  0  0  0
 12107  1  0  0  0  0
 13108  1  0  0  0  0
 13109  1  0  0  0  0
 14 16  1  0  0  0  0
 14 15  1  0  0  0  0
 14 13  1  0  0  0  0
 14110  1  6  0  0  0
 15111  1  0  0  0  0
 15112  1  0  0  0  0
 16 17  1  0  0  0  0
 16 18  2  0  0  0  0
 17113  1  0  0  0  0
 17114  1  0  0  0  0
 19 20  1  0  0  0  0
 20 21  1  0  0  0  0
 21 22  2  0  0  0  0
 21 23  1  0  0  0  0
 23115  1  0  0  0  0
 24 65  1  0  0  0  0
 24 25  1  0  0  0  0
 24 23  1  0  0  0  0
 24116  1  1  0  0  0
 25 26  2  0  0  0  0
 25 27  1  0  0  0  0
 27117  1  0  0  0  0
 28 30  1  0  0  0  0
 28 29  1  0  0  0  0
 28 27  1  0  0  0  0
 28118  1  1  0  0  0
 29119  1  0  0  0  0
 29120  1  0  0  0  0
 29121  1  0  0  0  0
 30 31  1  0  0  0  0
 30122  1  6  0  0  0
 31123  1  0  0  0  0
 32 34  1  0  0  0  0
 32 33  1  0  0  0  0
 32 30  1  0  0  0  0
 32124  1  6  0  0  0
 33125  1  0  0  0  0
 33126  1  0  0  0  0
 33127  1  0  0  0  0
 34 35  2  0  0  0  0
 34 36  1  0  0  0  0
 36128  1  0  0  0  0
 37 62  1  0  0  0  0
 37 38  1  0  0  0  0
 37 36  1  0  0  0  0
 37129  1  1  0  0  0
 38 39  2  0  0  0  0
 38 40  1  0  0  0  0
 40 41  1  0  0  0  0
 40130  1  0  0  0  0
 41 42  1  0  0  0  0
 41131  1  0  0  0  0
 41132  1  0  0  0  0
 42 43  1  0  0  0  0
 42133  1  0  0  0  0
 42134  1  0  0  0  0
 43 44  2  0  0  0  0
 43 61  1  0  0  0  0
 44 45  1  0  0  0  0
 45 46  1  0  0  0  0
 45 60  2  0  0  0  0
 46 47  2  0  0  0  0
 46 59  1  0  0  0  0
 47 48  1  0  0  0  0
 48 49  1  0  0  0  0
 48 58  2  0  0  0  0
 49 50  2  0  0  0  0
 49 51  1  0  0  0  0
 51 52  1  0  0  0  0
 51135  1  0  0  0  0
 52 53  1  0  0  0  0
 52136  1  0  0  0  0
 52137  1  0  0  0  0
 53 54  1  0  0  0  0
 53138  1  0  0  0  0
 53139  1  0  0  0  0
 54 55  1  0  0  0  0
 54140  1  0  0  0  0
 54141  1  0  0  0  0
 55 56  1  0  0  0  0
 55 57  1  0  0  0  0
 56142  1  0  0  0  0
 56143  1  0  0  0  0
 56144  1  0  0  0  0
 57145  1  0  0  0  0
 57146  1  0  0  0  0
 57147  1  0  0  0  0
 58 59  1  0  0  0  0
 58148  1  0  0  0  0
 60 61  1  0  0  0  0
 60149  1  0  0  0  0
 62 63  1  0  0  0  0
 62 64  1  0  0  0  0
 62150  1  6  0  0  0
 63151  1  0  0  0  0
 63152  1  0  0  0  0
 63153  1  0  0  0  0
 64154  1  0  0  0  0
 65 66  1  0  0  0  0
 65 92  1  0  0  0  0
 65155  1  1  0  0  0
 66 67  1  0  0  0  0
 67 68  1  0  0  0  0
 67 76  1  0  0  0  0
 67156  1  6  0  0  0
 68 69  1  0  0  0  0
 69 72  1  0  0  0  0
 69 70  1  0  0  0  0
 69157  1  1  0  0  0
 70 71  1  0  0  0  0
 70158  1  0  0  0  0
 70159  1  0  0  0  0
 71160  1  0  0  0  0
 72 73  1  0  0  0  0
 72 74  1  0  0  0  0
 72161  1  6  0  0  0
 73162  1  0  0  0  0
 74 75  1  0  0  0  0
 74 76  1  0  0  0  0
 74163  1  6  0  0  0
 75164  1  0  0  0  0
 76 77  1  0  0  0  0
 76165  1  1  0  0  0
 78 79  1  0  0  0  0
 78 90  1  0  0  0  0
 78 77  1  0  0  0  0
 78166  1  6  0  0  0
 79 80  1  0  0  0  0
 80 81  1  0  0  0  0
 80 83  1  0  0  0  0
 80167  1  1  0  0  0
 81 82  1  0  0  0  0
 81168  1  0  0  0  0
 81169  1  0  0  0  0
 82170  1  0  0  0  0
 83 84  1  0  0  0  0
 83 85  1  0  0  0  0
 83171  1  6  0  0  0
 84172  1  0  0  0  0
 85 86  1  0  0  0  0
 85 90  1  0  0  0  0
 85173  1  1  0  0  0
 86 87  1  0  0  0  0
 87 88  1  0  0  0  0
 87 89  2  0  0  0  0
 88174  1  0  0  0  0
 88175  1  0  0  0  0
 90 91  1  0  0  0  0
 90176  1  1  0  0  0
 91177  1  0  0  0  0
 92 93  2  0  0  0  0
 92 96  1  0  0  0  0
 93 94  1  0  0  0  0
 93178  1  0  0  0  0
 94 95  1  0  0  0  0
 94179  1  0  0  0  0
 95 96  2  0  0  0  0
 95180  1  0  0  0  0
M  CHG  1  55   1
M  END
$$$$
