CHEBI:15399
 OpenBabel04242411493D

 25 25  0  0  1  0  0  0  0  0999 V2000
    1.3176   -0.1622    1.3391 C   0  0  0  0  0  0  0  0  0  0  0  0
    2.0407    0.1516    0.2488 C   0  0  0  0  0  0  0  0  0  0  0  0
    1.6808    1.3633   -0.5689 C   0  0  0  0  0  0  0  0  0  0  0  0
    3.2324   -0.7133   -0.1713 C   0  0  1  0  0  0  0  0  0  0  0  0
    2.9267   -1.5975   -1.3927 C   0  0  0  0  0  0  0  0  0  0  0  0
    3.2350   -0.9620   -2.7143 C   0  0  0  0  0  0  0  0  0  0  0  0
    4.0104    0.1201   -2.8839 C   0  0  0  0  0  0  0  0  0  0  0  0
    4.2727    0.7538   -4.2136 C   0  0  0  0  0  0  0  0  0  0  0  0
    4.6728    0.7409   -1.6977 C   0  0  0  0  0  0  0  0  0  0  0  0
    5.3710    1.7442   -1.8380 O   0  0  0  0  0  0  0  0  0  0  0  0
    4.5389    0.0659   -0.3490 C   0  0  0  0  0  0  0  0  0  0  0  0
    0.4690    0.4395    1.6527 H   0  0  0  0  0  0  0  0  0  0  0  0
    1.5464   -1.0299    1.9508 H   0  0  0  0  0  0  0  0  0  0  0  0
    0.7925    1.8708   -0.1763 H   0  0  0  0  0  0  0  0  0  0  0  0
    1.4582    1.0858   -1.6026 H   0  0  0  0  0  0  0  0  0  0  0  0
    2.4947    2.0941   -0.5601 H   0  0  0  0  0  0  0  0  0  0  0  0
    3.4149   -1.4074    0.6633 H   0  0  0  0  0  0  0  0  0  0  0  0
    1.8739   -1.9057   -1.3809 H   0  0  0  0  0  0  0  0  0  0  0  0
    3.5184   -2.5198   -1.3262 H   0  0  0  0  0  0  0  0  0  0  0  0
    2.7751   -1.4299   -3.5826 H   0  0  0  0  0  0  0  0  0  0  0  0
    3.7569    0.2274   -5.0239 H   0  0  0  0  0  0  0  0  0  0  0  0
    5.3437    0.7430   -4.4405 H   0  0  0  0  0  0  0  0  0  0  0  0
    3.9239    1.7917   -4.2189 H   0  0  0  0  0  0  0  0  0  0  0  0
    4.6355    0.8285    0.4330 H   0  0  0  0  0  0  0  0  0  0  0  0
    5.3926   -0.6165   -0.2525 H   0  0  0  0  0  0  0  0  0  0  0  0
  1  2  2  0  0  0  0
  1 12  1  0  0  0  0
  1 13  1  0  0  0  0
  2  3  1  0  0  0  0
  2  4  1  0  0  0  0
  3 14  1  0  0  0  0
  3 15  1  0  0  0  0
  3 16  1  0  0  0  0
  4  5  1  0  0  0  0
  4 11  1  0  0  0  0
  4 17  1  1  0  0  0
  5  6  1  0  0  0  0
  5 18  1  0  0  0  0
  5 19  1  0  0  0  0
  6  7  2  0  0  0  0
  6 20  1  0  0  0  0
  7  8  1  0  0  0  0
  7  9  1  0  0  0  0
  8 21  1  0  0  0  0
  8 22  1  0  0  0  0
  8 23  1  0  0  0  0
  9 10  2  0  0  0  0
  9 11  1  0  0  0  0
 11 24  1  0  0  0  0
 11 25  1  0  0  0  0
M  END
$$$$
