CHEBI:17710
 OpenBabel04242417093D

 22 21  0  0  1  0  0  0  0  0999 V2000
    1.3186   -0.0453   -0.3187 C   0  0  0  0  0  0  0  0  0  0  0  0
    2.5243   -0.5489    0.4834 C   0  0  1  0  0  0  0  0  0  0  0  0
    3.5599    0.4461    0.3780 O   0  0  0  0  0  0  0  0  0  0  0  0
    2.1745   -0.7810    1.9720 C   0  0  0  0  0  0  0  0  0  0  0  0
    1.5727    0.4272    2.6901 C   0  0  0  0  0  0  0  0  0  0  0  0
    2.3882    1.5750    2.4758 O   0  0  0  0  0  0  0  0  0  0  0  0
    3.0610   -1.8289   -0.1764 C   0  0  0  0  0  0  0  0  0  0  0  0
    4.3134   -2.3666    0.4735 C   0  0  0  0  0  0  0  0  0  0  0  0
    4.4741   -3.5458    0.7539 O   0  0  0  0  0  0  0  0  0  0  0  0
    5.2758   -1.4361    0.6601 O   0  0  0  0  0  0  0  0  0  0  0  0
    0.9970    0.9467    0.0154 H   0  0  0  0  0  0  0  0  0  0  0  0
    0.4710   -0.7342   -0.2437 H   0  0  0  0  0  0  0  0  0  0  0  0
    1.5775    0.0684   -1.3780 H   0  0  0  0  0  0  0  0  0  0  0  0
    3.2868    1.1786    0.9827 H   0  0  0  0  0  0  0  0  0  0  0  0
    3.0973   -1.0374    2.5080 H   0  0  0  0  0  0  0  0  0  0  0  0
    1.4890   -1.6306    2.0739 H   0  0  0  0  0  0  0  0  0  0  0  0
    1.5172    0.2312    3.7659 H   0  0  0  0  0  0  0  0  0  0  0  0
    0.5634    0.6437    2.3277 H   0  0  0  0  0  0  0  0  0  0  0  0
    2.0642    2.2651    3.0848 H   0  0  0  0  0  0  0  0  0  0  0  0
    3.3137   -1.6503   -1.2290 H   0  0  0  0  0  0  0  0  0  0  0  0
    2.2979   -2.6159   -0.1456 H   0  0  0  0  0  0  0  0  0  0  0  0
    4.9412   -0.5336    0.4252 H   0  0  0  0  0  0  0  0  0  0  0  0
  1  2  1  0  0  0  0
  1 11  1  0  0  0  0
  1 12  1  0  0  0  0
  1 13  1  0  0  0  0
  2  3  1  6  0  0  0
  2  4  1  0  0  0  0
  2  7  1  0  0  0  0
  3 14  1  0  0  0  0
  4  5  1  0  0  0  0
  4 15  1  0  0  0  0
  4 16  1  0  0  0  0
  5  6  1  0  0  0  0
  5 17  1  0  0  0  0
  5 18  1  0  0  0  0
  6 19  1  0  0  0  0
  7  8  1  0  0  0  0
  7 20  1  0  0  0  0
  7 21  1  0  0  0  0
  8  9  2  0  0  0  0
  8 10  1  0  0  0  0
 10 22  1  0  0  0  0
M  END
$$$$
