CHEBI:16552
 OpenBabel04242414443D

 22 21  0  0  1  0  0  0  0  0999 V2000
    8.0354   -5.7291   -1.5222 C   0  0  0  0  0  0  0  0  0  0  0  0
    7.8075   -5.6416    0.2713 S   0  0  0  0  0  0  0  0  0  0  0  0
    6.1101   -4.9791    0.2941 C   0  0  0  0  0  0  0  0  0  0  0  0
    5.6585   -4.6311    1.7151 C   0  0  0  0  0  0  0  0  0  0  0  0
    6.3955   -3.4383    2.3500 C   0  0  2  0  0  0  0  0  0  0  0  0
    6.2202   -3.4158    3.8146 N   0  0  0  0  0  0  0  0  0  0  0  0
    5.0212   -3.3298    4.4575 C   0  0  0  0  0  0  0  0  0  0  0  0
    3.9765   -3.0411    3.8892 O   0  0  0  0  0  0  0  0  0  0  0  0
    6.0387   -2.1315    1.6125 C   0  0  0  0  0  0  0  0  0  0  0  0
    6.6331   -1.7550    0.6087 O   0  0  0  0  0  0  0  0  0  0  0  0
    4.9367   -1.4868    2.0503 O   0  0  0  0  0  0  0  0  0  0  0  0
    9.0323   -6.1213   -1.7398 H   0  0  0  0  0  0  0  0  0  0  0  0
    7.9494   -4.7337   -1.9659 H   0  0  0  0  0  0  0  0  0  0  0  0
    7.2935   -6.3970   -1.9674 H   0  0  0  0  0  0  0  0  0  0  0  0
    5.4462   -5.7509   -0.1097 H   0  0  0  0  0  0  0  0  0  0  0  0
    6.0445   -4.1076   -0.3630 H   0  0  0  0  0  0  0  0  0  0  0  0
    5.7608   -5.5178    2.3552 H   0  0  0  0  0  0  0  0  0  0  0  0
    4.5836   -4.4113    1.6764 H   0  0  0  0  0  0  0  0  0  0  0  0
    7.4795   -3.5517    2.2340 H   0  0  0  0  0  0  0  0  0  0  0  0
    7.0213   -3.6985    4.3676 H   0  0  0  0  0  0  0  0  0  0  0  0
    5.1018   -3.4802    5.5467 H   0  0  0  0  0  0  0  0  0  0  0  0
    4.4426   -1.9810    2.7480 H   0  0  0  0  0  0  0  0  0  0  0  0
  1  2  1  0  0  0  0
  1 12  1  0  0  0  0
  1 13  1  0  0  0  0
  1 14  1  0  0  0  0
  2  3  1  0  0  0  0
  3  4  1  0  0  0  0
  3 15  1  0  0  0  0
  3 16  1  0  0  0  0
  4 17  1  0  0  0  0
  4 18  1  0  0  0  0
  5  9  1  0  0  0  0
  5  6  1  0  0  0  0
  5  4  1  0  0  0  0
  5 19  1  6  0  0  0
  6  7  1  0  0  0  0
  6 20  1  0  0  0  0
  7  8  2  0  0  0  0
  7 21  1  0  0  0  0
  9 10  2  0  0  0  0
  9 11  1  0  0  0  0
 11 22  1  0  0  0  0
M  END
$$$$
