CHEBI:27436
 OpenBabel04252409583D

 52 55  0  0  1  0  0  0  0  0999 V2000
    1.0839    0.1485    0.1258 C   0  0  0  0  0  0  0  0  0  0  0  0
    2.6237   -0.0213    0.1676 C   0  0  2  0  0  0  0  0  0  0  0  0
    3.0421    0.3586    1.6180 C   0  0  0  0  0  0  0  0  0  0  0  0
    4.5206    0.6736    1.7671 C   0  0  0  0  0  0  0  0  0  0  0  0
    4.8919    1.7921    0.8277 C   0  0  0  0  0  0  0  0  0  0  0  0
    5.7448    2.6315    1.1034 O   0  0  0  0  0  0  0  0  0  0  0  0
    4.2819    1.7840   -0.5227 C   0  0  0  0  0  0  0  0  0  0  0  0
    3.2975    0.9231   -0.8371 C   0  0  0  0  0  0  0  0  0  0  0  0
    2.9125    0.7176   -2.2809 C   0  0  0  0  0  0  0  0  0  0  0  0
    3.2946   -0.7038   -2.6985 C   0  0  0  0  0  0  0  0  0  0  0  0
    2.7145   -1.7737   -1.7531 C   0  0  2  0  0  0  0  0  0  0  0  0
    3.0617   -1.4711   -0.2503 C   0  0  2  0  0  0  0  0  0  0  0  0
    2.5474   -2.5943    0.6868 C   0  0  0  0  0  0  0  0  0  0  0  0
    2.9767   -4.0040    0.2355 C   0  0  0  0  0  0  0  0  0  0  0  0
    2.6002   -4.2848   -1.2296 C   0  0  1  0  0  0  0  0  0  0  0  0
    1.0486   -4.3456   -1.3370 C   0  0  0  0  0  0  0  0  0  0  0  0
    3.2317   -3.1759   -2.1009 C   0  0  1  0  0  0  0  0  0  0  0  0
    3.0462   -3.6914   -3.5239 C   0  0  0  0  0  0  0  0  0  0  0  0
    3.2075   -5.2189   -3.4069 C   0  0  0  0  0  0  0  0  0  0  0  0
    3.2249   -5.5562   -1.8897 C   0  0  1  0  0  0  0  0  0  0  0  0
    4.6518   -5.8915   -1.4368 C   0  0  0  0  0  0  0  0  0  0  0  0
    2.4621   -6.7312   -1.6252 O   0  0  0  0  0  0  0  0  0  0  0  0
    0.8025    1.1997    0.2652 H   0  0  0  0  0  0  0  0  0  0  0  0
    0.6002   -0.4235    0.9254 H   0  0  0  0  0  0  0  0  0  0  0  0
    0.6361   -0.1751   -0.8171 H   0  0  0  0  0  0  0  0  0  0  0  0
    2.7553   -0.4175    2.3344 H   0  0  0  0  0  0  0  0  0  0  0  0
    2.4854    1.2563    1.9270 H   0  0  0  0  0  0  0  0  0  0  0  0
    5.1494   -0.1965    1.5547 H   0  0  0  0  0  0  0  0  0  0  0  0
    4.7200    1.0008    2.7933 H   0  0  0  0  0  0  0  0  0  0  0  0
    4.7597    2.4296   -1.2513 H   0  0  0  0  0  0  0  0  0  0  0  0
    3.4244    1.4307   -2.9386 H   0  0  0  0  0  0  0  0  0  0  0  0
    1.8402    0.8893   -2.4222 H   0  0  0  0  0  0  0  0  0  0  0  0
    4.3891   -0.7909   -2.7243 H   0  0  0  0  0  0  0  0  0  0  0  0
    2.9419   -0.8771   -3.7220 H   0  0  0  0  0  0  0  0  0  0  0  0
    1.6284   -1.7554   -1.8879 H   0  0  0  0  0  0  0  0  0  0  0  0
    4.1601   -1.5069   -0.1759 H   0  0  0  0  0  0  0  0  0  0  0  0
    1.4573   -2.5527    0.7726 H   0  0  0  0  0  0  0  0  0  0  0  0
    2.9408   -2.4464    1.6980 H   0  0  0  0  0  0  0  0  0  0  0  0
    2.5296   -4.7551    0.8977 H   0  0  0  0  0  0  0  0  0  0  0  0
    4.0619   -4.0730    0.3756 H   0  0  0  0  0  0  0  0  0  0  0  0
    0.5603   -3.4134   -1.0429 H   0  0  0  0  0  0  0  0  0  0  0  0
    0.6486   -5.1272   -0.6802 H   0  0  0  0  0  0  0  0  0  0  0  0
    0.7087   -4.5705   -2.3529 H   0  0  0  0  0  0  0  0  0  0  0  0
    4.3172   -3.1541   -1.9205 H   0  0  0  0  0  0  0  0  0  0  0  0
    3.7849   -3.2674   -4.2119 H   0  0  0  0  0  0  0  0  0  0  0  0
    2.0529   -3.4427   -3.9140 H   0  0  0  0  0  0  0  0  0  0  0  0
    4.1345   -5.5370   -3.8983 H   0  0  0  0  0  0  0  0  0  0  0  0
    2.3886   -5.7224   -3.9335 H   0  0  0  0  0  0  0  0  0  0  0  0
    4.6705   -6.1804   -0.3800 H   0  0  0  0  0  0  0  0  0  0  0  0
    5.3540   -5.0674   -1.5880 H   0  0  0  0  0  0  0  0  0  0  0  0
    5.0319   -6.7606   -1.9875 H   0  0  0  0  0  0  0  0  0  0  0  0
    1.6395   -6.6972   -2.1409 H   0  0  0  0  0  0  0  0  0  0  0  0
  1 23  1  0  0  0  0
  1 24  1  0  0  0  0
  1 25  1  0  0  0  0
  2  1  1  6  0  0  0
  2  3  1  0  0  0  0
  2  8  1  0  0  0  0
  2 12  1  0  0  0  0
  3  4  1  0  0  0  0
  3 26  1  0  0  0  0
  3 27  1  0  0  0  0
  4  5  1  0  0  0  0
  4 28  1  0  0  0  0
  4 29  1  0  0  0  0
  5  6  2  0  0  0  0
  5  7  1  0  0  0  0
  7  8  2  0  0  0  0
  7 30  1  0  0  0  0
  8  9  1  0  0  0  0
  9 10  1  0  0  0  0
  9 31  1  0  0  0  0
  9 32  1  0  0  0  0
 10 11  1  0  0  0  0
 10 33  1  0  0  0  0
 10 34  1  0  0  0  0
 11 12  1  0  0  0  0
 11 17  1  0  0  0  0
 11 35  1  6  0  0  0
 12 13  1  0  0  0  0
 12 36  1  1  0  0  0
 13 14  1  0  0  0  0
 13 37  1  0  0  0  0
 13 38  1  0  0  0  0
 14 15  1  0  0  0  0
 14 39  1  0  0  0  0
 14 40  1  0  0  0  0
 15 16  1  6  0  0  0
 15 17  1  0  0  0  0
 15 20  1  0  0  0  0
 16 41  1  0  0  0  0
 16 42  1  0  0  0  0
 16 43  1  0  0  0  0
 17 18  1  0  0  0  0
 17 44  1  1  0  0  0
 18 19  1  0  0  0  0
 18 45  1  0  0  0  0
 18 46  1  0  0  0  0
 19 20  1  0  0  0  0
 19 47  1  0  0  0  0
 19 48  1  0  0  0  0
 20 22  1  1  0  0  0
 20 21  1  0  0  0  0
 21 49  1  0  0  0  0
 21 50  1  0  0  0  0
 21 51  1  0  0  0  0
 22 52  1  0  0  0  0
M  END
$$$$
