CHEBI:4916
 OpenBabel04242411023D

 97103  0  0  1  0  0  0  0  0999 V2000
   -0.3064    5.1694    1.2876 O   0  0  0  0  0  0  0  0  0  0  0  0
    0.0857    4.6307    0.2642 C   0  0  0  0  0  0  0  0  0  0  0  0
    1.3619    4.2770   -0.0302 O   0  0  0  0  0  0  0  0  0  0  0  0
    2.2822    4.5076    1.0510 C   0  0  2  0  0  0  0  0  0  0  0  0
    2.6340    5.8813    1.1274 O   0  0  0  0  0  0  0  0  0  0  0  0
    3.5523    6.3273    0.1411 C   0  0  2  0  0  0  0  0  0  0  0  0
    3.6660    7.8659    0.2196 C   0  0  0  0  0  0  0  0  0  0  0  0
    3.6131    8.3264    1.5817 O   0  0  0  0  0  0  0  0  0  0  0  0
    4.7167    8.8763    2.1371 C   0  0  0  0  0  0  0  0  0  0  0  0
    5.7674    9.1404    1.5881 O   0  0  0  0  0  0  0  0  0  0  0  0
    4.4387    8.9417    3.5917 C   0  0  0  0  0  0  0  0  0  0  0  0
    3.2547    9.6088    3.9826 C   0  0  0  0  0  0  0  0  0  0  0  0
    2.8718    9.6032    5.3140 C   0  0  0  0  0  0  0  0  0  0  0  0
    1.7341   10.2207    5.7499 O   0  0  0  0  0  0  0  0  0  0  0  0
    3.6395    8.9255    6.2466 C   0  0  0  0  0  0  0  0  0  0  0  0
    3.2552    8.8835    7.5616 O   0  0  0  0  0  0  0  0  0  0  0  0
    4.8040    8.2609    5.8628 C   0  0  0  0  0  0  0  0  0  0  0  0
    5.4705    7.5451    6.8305 O   0  0  0  0  0  0  0  0  0  0  0  0
    5.2661    8.2796    4.5307 C   0  0  0  0  0  0  0  0  0  0  0  0
    6.5506    7.6165    4.1943 C   0  0  0  0  0  0  0  0  0  0  0  0
    6.6530    6.4852    3.3554 C   0  0  0  0  0  0  0  0  0  0  0  0
    7.8675    5.7918    3.1628 C   0  0  0  0  0  0  0  0  0  0  0  0
    9.0133    6.2495    3.7891 C   0  0  0  0  0  0  0  0  0  0  0  0
   10.2159    5.6153    3.6632 O   0  0  0  0  0  0  0  0  0  0  0  0
    8.9601    7.3974    4.5650 C   0  0  0  0  0  0  0  0  0  0  0  0
   10.0959    7.8804    5.1608 O   0  0  0  0  0  0  0  0  0  0  0  0
    7.7557    8.0767    4.7566 C   0  0  0  0  0  0  0  0  0  0  0  0
    7.7851    9.2260    5.5088 O   0  0  0  0  0  0  0  0  0  0  0  0
    5.4859    5.9765    2.6199 C   0  0  0  0  0  0  0  0  0  0  0  0
    4.4758    5.5521    3.1407 O   0  0  0  0  0  0  0  0  0  0  0  0
    5.7770    6.0852    1.3084 O   0  0  0  0  0  0  0  0  0  0  0  0
    4.8952    5.6046    0.2641 C   0  0  1  0  0  0  0  0  0  0  0  0
    4.7656    4.0739    0.3228 C   0  0  2  0  0  0  0  0  0  0  0  0
    4.8626    3.4886   -1.0035 O   0  0  0  0  0  0  0  0  0  0  0  0
    6.1276    3.3606   -1.4830 C   0  0  0  0  0  0  0  0  0  0  0  0
    7.0979    4.0085   -1.1313 O   0  0  0  0  0  0  0  0  0  0  0  0
    6.1846    2.2396   -2.4439 C   0  0  0  0  0  0  0  0  0  0  0  0
    5.4102    1.0869   -2.2193 C   0  0  0  0  0  0  0  0  0  0  0  0
    5.5596   -0.0042   -3.0648 C   0  0  0  0  0  0  0  0  0  0  0  0
    4.8602   -1.1629   -2.8778 O   0  0  0  0  0  0  0  0  0  0  0  0
    6.4598    0.0504   -4.1226 C   0  0  0  0  0  0  0  0  0  0  0  0
    6.6236   -1.0275   -4.9495 O   0  0  0  0  0  0  0  0  0  0  0  0
    7.2233    1.1918   -4.3393 C   0  0  0  0  0  0  0  0  0  0  0  0
    8.1172    1.2275   -5.3696 O   0  0  0  0  0  0  0  0  0  0  0  0
    7.1018    2.2926   -3.5018 C   0  0  0  0  0  0  0  0  0  0  0  0
    3.4663    3.5186    0.9387 C   0  0  1  0  0  0  0  0  0  0  0  0
    3.7625    3.0522    2.2816 O   0  0  0  0  0  0  0  0  0  0  0  0
    4.2687    1.8075    2.4295 C   0  0  0  0  0  0  0  0  0  0  0  0
    4.5062    1.0176    1.5328 O   0  0  0  0  0  0  0  0  0  0  0  0
    4.4378    1.5471    3.8823 C   0  0  0  0  0  0  0  0  0  0  0  0
    4.5957    2.6111    4.7906 C   0  0  0  0  0  0  0  0  0  0  0  0
    4.6873    2.3534    6.1496 C   0  0  0  0  0  0  0  0  0  0  0  0
    4.8216    3.3571    7.0666 O   0  0  0  0  0  0  0  0  0  0  0  0
    4.6268    1.0458    6.6087 C   0  0  0  0  0  0  0  0  0  0  0  0
    4.6859    0.7811    7.9495 O   0  0  0  0  0  0  0  0  0  0  0  0
    4.4928   -0.0091    5.7116 C   0  0  0  0  0  0  0  0  0  0  0  0
    4.4247   -1.2903    6.1766 O   0  0  0  0  0  0  0  0  0  0  0  0
    4.4072    0.2259    4.3444 C   0  0  0  0  0  0  0  0  0  0  0  0
   -0.8475    4.2689   -0.8288 C   0  0  0  0  0  0  0  0  0  0  0  0
   -2.1359    4.8376   -0.7936 C   0  0  0  0  0  0  0  0  0  0  0  0
   -3.0660    4.4895   -1.7644 C   0  0  0  0  0  0  0  0  0  0  0  0
   -4.3301    5.0077   -1.7765 O   0  0  0  0  0  0  0  0  0  0  0  0
   -2.7257    3.5808   -2.7581 C   0  0  0  0  0  0  0  0  0  0  0  0
   -3.6381    3.2193   -3.7112 O   0  0  0  0  0  0  0  0  0  0  0  0
   -1.4550    3.0189   -2.7908 C   0  0  0  0  0  0  0  0  0  0  0  0
   -1.1338    2.1154   -3.7617 O   0  0  0  0  0  0  0  0  0  0  0  0
   -0.5047    3.3554   -1.8351 C   0  0  0  0  0  0  0  0  0  0  0  0
    1.7699    4.2738    1.9937 H   0  0  0  0  0  0  0  0  0  0  0  0
    3.1375    6.0854   -0.8471 H   0  0  0  0  0  0  0  0  0  0  0  0
    2.7813    8.2993   -0.2607 H   0  0  0  0  0  0  0  0  0  0  0  0
    4.5423    8.2387   -0.3216 H   0  0  0  0  0  0  0  0  0  0  0  0
    2.6437   10.1008    3.2310 H   0  0  0  0  0  0  0  0  0  0  0  0
    1.2696   10.5922    4.9791 H   0  0  0  0  0  0  0  0  0  0  0  0
    2.4298    9.4109    7.5881 H   0  0  0  0  0  0  0  0  0  0  0  0
    5.0202    7.7857    7.6659 H   0  0  0  0  0  0  0  0  0  0  0  0
    7.8928    4.9134    2.5239 H   0  0  0  0  0  0  0  0  0  0  0  0
   10.1016    4.8400    3.0848 H   0  0  0  0  0  0  0  0  0  0  0  0
   10.7962    7.2501    4.8921 H   0  0  0  0  0  0  0  0  0  0  0  0
    8.7181    9.3160    5.7891 H   0  0  0  0  0  0  0  0  0  0  0  0
    5.4421    5.8723   -0.6480 H   0  0  0  0  0  0  0  0  0  0  0  0
    5.6130    3.6765    0.8991 H   0  0  0  0  0  0  0  0  0  0  0  0
    4.7339    1.0387   -1.3703 H   0  0  0  0  0  0  0  0  0  0  0  0
    4.3374   -1.0792   -2.0592 H   0  0  0  0  0  0  0  0  0  0  0  0
    6.0093   -1.7017   -4.5914 H   0  0  0  0  0  0  0  0  0  0  0  0
    8.0437    0.3481   -5.7940 H   0  0  0  0  0  0  0  0  0  0  0  0
    7.7246    3.1686   -3.6622 H   0  0  0  0  0  0  0  0  0  0  0  0
    3.1163    2.6504    0.3634 H   0  0  0  0  0  0  0  0  0  0  0  0
    4.6305    3.6341    4.4382 H   0  0  0  0  0  0  0  0  0  0  0  0
    4.8212    4.2151    6.5984 H   0  0  0  0  0  0  0  0  0  0  0  0
    4.7574    1.6666    8.3645 H   0  0  0  0  0  0  0  0  0  0  0  0
    4.4795   -1.2028    7.1506 H   0  0  0  0  0  0  0  0  0  0  0  0
    4.2919   -0.6074    3.6568 H   0  0  0  0  0  0  0  0  0  0  0  0
   -2.3937    5.5367   -0.0016 H   0  0  0  0  0  0  0  0  0  0  0  0
   -4.4250    5.6106   -1.0171 H   0  0  0  0  0  0  0  0  0  0  0  0
   -4.4442    3.7266   -3.4806 H   0  0  0  0  0  0  0  0  0  0  0  0
   -1.9475    2.0286   -4.3000 H   0  0  0  0  0  0  0  0  0  0  0  0
    0.4751    2.8898   -1.8740 H   0  0  0  0  0  0  0  0  0  0  0  0
  1  2  2  0  0  0  0
  2  3  1  0  0  0  0
  2 59  1  0  0  0  0
  3  4  1  0  0  0  0
  4  5  1  0  0  0  0
  4 46  1  0  0  0  0
  4 68  1  1  0  0  0
  5  6  1  0  0  0  0
  6  7  1  0  0  0  0
  6 32  1  0  0  0  0
  6 69  1  1  0  0  0
  7  8  1  0  0  0  0
  7 70  1  0  0  0  0
  7 71  1  0  0  0  0
  8  9  1  0  0  0  0
  9 10  2  0  0  0  0
  9 11  1  0  0  0  0
 11 12  1  0  0  0  0
 11 19  2  0  0  0  0
 12 13  2  0  0  0  0
 12 72  1  0  0  0  0
 13 14  1  0  0  0  0
 13 15  1  0  0  0  0
 14 73  1  0  0  0  0
 15 16  1  0  0  0  0
 15 17  2  0  0  0  0
 16 74  1  0  0  0  0
 17 18  1  0  0  0  0
 17 19  1  0  0  0  0
 18 75  1  0  0  0  0
 19 20  1  0  0  0  0
 20 21  1  0  0  0  0
 20 27  2  0  0  0  0
 21 22  2  0  0  0  0
 21 29  1  0  0  0  0
 22 23  1  0  0  0  0
 22 76  1  0  0  0  0
 23 24  1  0  0  0  0
 23 25  2  0  0  0  0
 24 77  1  0  0  0  0
 25 26  1  0  0  0  0
 25 27  1  0  0  0  0
 26 78  1  0  0  0  0
 27 28  1  0  0  0  0
 28 79  1  0  0  0  0
 29 30  2  0  0  0  0
 29 31  1  0  0  0  0
 31 32  1  0  0  0  0
 32 33  1  0  0  0  0
 32 80  1  6  0  0  0
 33 46  1  0  0  0  0
 33 34  1  0  0  0  0
 33 81  1  1  0  0  0
 34 35  1  0  0  0  0
 35 36  2  0  0  0  0
 35 37  1  0  0  0  0
 37 38  1  0  0  0  0
 37 45  2  0  0  0  0
 38 39  2  0  0  0  0
 38 82  1  0  0  0  0
 39 40  1  0  0  0  0
 39 41  1  0  0  0  0
 40 83  1  0  0  0  0
 41 42  1  0  0  0  0
 41 43  2  0  0  0  0
 42 84  1  0  0  0  0
 43 44  1  0  0  0  0
 43 45  1  0  0  0  0
 44 85  1  0  0  0  0
 45 86  1  0  0  0  0
 46 47  1  0  0  0  0
 46 87  1  6  0  0  0
 47 48  1  0  0  0  0
 48 49  2  0  0  0  0
 48 50  1  0  0  0  0
 50 51  1  0  0  0  0
 50 58  2  0  0  0  0
 51 52  2  0  0  0  0
 51 88  1  0  0  0  0
 52 53  1  0  0  0  0
 52 54  1  0  0  0  0
 53 89  1  0  0  0  0
 54 55  1  0  0  0  0
 54 56  2  0  0  0  0
 55 90  1  0  0  0  0
 56 57  1  0  0  0  0
 56 58  1  0  0  0  0
 57 91  1  0  0  0  0
 58 92  1  0  0  0  0
 59 60  1  0  0  0  0
 59 67  2  0  0  0  0
 60 61  2  0  0  0  0
 60 93  1  0  0  0  0
 61 62  1  0  0  0  0
 61 63  1  0  0  0  0
 62 94  1  0  0  0  0
 63 64  1  0  0  0  0
 63 65  2  0  0  0  0
 64 95  1  0  0  0  0
 65 66  1  0  0  0  0
 65 67  1  0  0  0  0
 66 96  1  0  0  0  0
 67 97  1  0  0  0  0
M  END
$$$$
