CHEBI:16321
 OpenBabel04242414113D

 20 19  0  0  0  0  0  0  0  0999 V2000
    3.0479    0.9047   -1.7055 O   0  0  0  0  0  0  0  0  0  0  0  0
    2.3510    0.5921   -0.7610 C   0  0  0  0  0  0  0  0  0  0  0  0
    1.0795    1.0015   -0.6347 O   0  0  0  0  0  0  0  0  0  0  0  0
    2.6999   -0.2912    0.3608 C   0  0  0  0  0  0  0  0  0  0  0  0
    3.9538   -0.4936    0.8108 C   0  0  0  0  0  0  0  0  0  0  0  0
    4.1951   -1.4680    1.8757 C   0  0  0  0  0  0  0  0  0  0  0  0
    5.3463   -1.9607    2.3756 C   0  0  0  0  0  0  0  0  0  0  0  0
    6.6305   -1.6763    1.9448 O   0  0  0  0  0  0  0  0  0  0  0  0
    5.2391   -2.9272    3.5204 C   0  0  0  0  0  0  0  0  0  0  0  0
    4.2027   -3.3434    4.0065 O   0  0  0  0  0  0  0  0  0  0  0  0
    6.4758   -3.2747    3.9433 O   0  0  0  0  0  0  0  0  0  0  0  0
    5.0628    0.3149    0.2561 C   0  0  0  0  0  0  0  0  0  0  0  0
    6.1431   -0.1368   -0.0887 O   0  0  0  0  0  0  0  0  0  0  0  0
    4.8301    1.6339    0.3446 O   0  0  0  0  0  0  0  0  0  0  0  0
    0.9309    1.5778   -1.4136 H   0  0  0  0  0  0  0  0  0  0  0  0
    1.8541   -0.8178    0.7911 H   0  0  0  0  0  0  0  0  0  0  0  0
    3.2743   -1.8398    2.3348 H   0  0  0  0  0  0  0  0  0  0  0  0
    6.5972   -1.2010    1.0857 H   0  0  0  0  0  0  0  0  0  0  0  0
    7.1442   -2.8085    3.3925 H   0  0  0  0  0  0  0  0  0  0  0  0
    5.6110    2.0600   -0.0658 H   0  0  0  0  0  0  0  0  0  0  0  0
  1  2  2  0  0  0  0
  2  3  1  0  0  0  0
  2  4  1  0  0  0  0
  3 15  1  0  0  0  0
  4  5  2  0  0  0  0
  4 16  1  0  0  0  0
  5  6  1  0  0  0  0
  5 12  1  0  0  0  0
  6  7  2  0  0  0  0
  6 17  1  0  0  0  0
  7  8  1  0  0  0  0
  7  9  1  0  0  0  0
  8 18  1  0  0  0  0
  9 10  2  0  0  0  0
  9 11  1  0  0  0  0
 11 19  1  0  0  0  0
 12 13  2  0  0  0  0
 12 14  1  0  0  0  0
 14 20  1  0  0  0  0
M  END
$$$$
