CHEBI:17191
 OpenBabel04242415593D

 22 21  0  0  1  0  0  0  0  0999 V2000
    6.6696    3.5976   -1.8306 C   0  0  0  0  0  0  0  0  0  0  0  0
    6.4246    2.1161   -2.0844 C   0  0  0  0  0  0  0  0  0  0  0  0
    5.6735    1.4087   -0.9347 C   0  0  2  0  0  0  0  0  0  0  0  0
    4.2564    1.9734   -0.7581 C   0  0  0  0  0  0  0  0  0  0  0  0
    5.6808   -0.1288   -1.1419 C   0  0  2  0  0  0  0  0  0  0  0  0
    4.9215   -0.5401   -2.3397 N   0  0  0  0  0  0  0  0  0  0  0  0
    5.2116   -0.8529    0.1374 C   0  0  0  0  0  0  0  0  0  0  0  0
    5.6992   -0.6810    1.2451 O   0  0  0  0  0  0  0  0  0  0  0  0
    4.1914   -1.7199   -0.0697 O   0  0  0  0  0  0  0  0  0  0  0  0
    7.2920    4.0159   -2.6284 H   0  0  0  0  0  0  0  0  0  0  0  0
    7.1896    3.7530   -0.8801 H   0  0  0  0  0  0  0  0  0  0  0  0
    5.7338    4.1634   -1.8122 H   0  0  0  0  0  0  0  0  0  0  0  0
    7.3991    1.6328   -2.2271 H   0  0  0  0  0  0  0  0  0  0  0  0
    5.8747    2.0053   -3.0266 H   0  0  0  0  0  0  0  0  0  0  0  0
    6.2192    1.6187   -0.0043 H   0  0  0  0  0  0  0  0  0  0  0  0
    3.6865    1.9383   -1.6921 H   0  0  0  0  0  0  0  0  0  0  0  0
    4.2900    3.0170   -0.4294 H   0  0  0  0  0  0  0  0  0  0  0  0
    3.6981    1.4193    0.0032 H   0  0  0  0  0  0  0  0  0  0  0  0
    6.7141   -0.4632   -1.2984 H   0  0  0  0  0  0  0  0  0  0  0  0
    3.9514   -0.2400   -2.3478 H   0  0  0  0  0  0  0  0  0  0  0  0
    5.0668   -1.5090   -2.6084 H   0  0  0  0  0  0  0  0  0  0  0  0
    3.9364   -1.7127   -1.0101 H   0  0  0  0  0  0  0  0  0  0  0  0
  1  2  1  0  0  0  0
  1 10  1  0  0  0  0
  1 11  1  0  0  0  0
  1 12  1  0  0  0  0
  2 13  1  0  0  0  0
  2 14  1  0  0  0  0
  3  4  1  0  0  0  0
  3  2  1  0  0  0  0
  3 15  1  6  0  0  0
  4 16  1  0  0  0  0
  4 17  1  0  0  0  0
  4 18  1  0  0  0  0
  5  7  1  0  0  0  0
  5  6  1  0  0  0  0
  5  3  1  0  0  0  0
  5 19  1  6  0  0  0
  6 20  1  0  0  0  0
  6 21  1  0  0  0  0
  7  8  2  0  0  0  0
  7  9  1  0  0  0  0
  9 22  1  0  0  0  0
M  END
$$$$
