CHEBI:17981
 OpenBabel04242423213D

 19 18  0  0  1  0  0  0  0  0999 V2000
    8.4635    2.8400    0.3478 C   0  0  0  0  0  0  0  0  0  0  0  0
    7.2480    2.0327    0.6849 C   0  0  0  0  0  0  0  0  0  0  0  0
    7.1763    1.2410    1.6161 O   0  0  0  0  0  0  0  0  0  0  0  0
    6.2558    2.2729   -0.2144 O   0  0  0  0  0  0  0  0  0  0  0  0
    5.0031    1.6045    0.0340 C   0  0  0  0  0  0  0  0  0  0  0  0
    4.9325    0.2136   -0.6172 C   0  0  2  0  0  0  0  0  0  0  0  0
    6.1054   -0.6731   -0.3300 N   0  0  0  0  0  0  0  0  0  0  0  0
    4.8122    0.3802   -2.1358 C   0  0  0  0  0  0  0  0  0  0  0  0
    3.8699    0.8999   -2.7124 O   0  0  0  0  0  0  0  0  0  0  0  0
    5.8990   -0.1255   -2.7767 O   0  0  0  0  0  0  0  0  0  0  0  0
    9.1446    2.8414    1.2036 H   0  0  0  0  0  0  0  0  0  0  0  0
    8.1795    3.8757    0.1427 H   0  0  0  0  0  0  0  0  0  0  0  0
    8.9690    2.4040   -0.5168 H   0  0  0  0  0  0  0  0  0  0  0  0
    4.2197    2.2559   -0.3697 H   0  0  0  0  0  0  0  0  0  0  0  0
    4.8201    1.5327    1.1134 H   0  0  0  0  0  0  0  0  0  0  0  0
    4.0277   -0.3025   -0.2759 H   0  0  0  0  0  0  0  0  0  0  0  0
    6.4424   -0.4469    0.6186 H   0  0  0  0  0  0  0  0  0  0  0  0
    5.7617   -1.6357   -0.2491 H   0  0  0  0  0  0  0  0  0  0  0  0
    6.4874   -0.4741   -2.0586 H   0  0  0  0  0  0  0  0  0  0  0  0
  1  2  1  0  0  0  0
  1 11  1  0  0  0  0
  1 12  1  0  0  0  0
  1 13  1  0  0  0  0
  2  3  2  0  0  0  0
  2  4  1  0  0  0  0
  4  5  1  0  0  0  0
  5 14  1  0  0  0  0
  5 15  1  0  0  0  0
  6  8  1  0  0  0  0
  6  7  1  0  0  0  0
  6  5  1  0  0  0  0
  6 16  1  1  0  0  0
  7 17  1  0  0  0  0
  7 18  1  0  0  0  0
  8  9  2  0  0  0  0
  8 10  1  0  0  0  0
 10 19  1  0  0  0  0
M  END
$$$$
