CHEBI:16380
 OpenBabel04242414163D

 65 69  0  0  1  0  0  0  0  0999 V2000
    5.0293    3.6494    1.6599 C   0  0  0  0  0  0  0  0  0  0  0  0
    4.8623    3.0468    0.2707 C   0  0  0  0  0  0  0  0  0  0  0  0
    6.1913    2.5926   -0.3889 C   0  0  2  0  0  0  0  0  0  0  0  0
    6.7604    1.3963    0.4219 C   0  0  0  0  0  0  0  0  0  0  0  0
    8.0309    1.1497    0.0862 C   0  0  0  0  0  0  0  0  0  0  0  0
    8.5788    2.0394   -1.0144 C   0  0  0  0  0  0  0  0  0  0  0  0
    7.4452    3.0695   -1.3720 N   0  0  0  0  0  0  0  0  0  0  0  0
    6.5984    4.3450   -2.1626 C   0  0  0  0  0  0  0  0  0  0  0  0
    7.5159    5.4826   -2.1950 C   0  0  0  0  0  0  0  0  0  0  0  0
    8.4882    4.4407   -1.7839 C   0  0  2  0  0  0  0  0  0  0  0  0
    9.8350    5.0107   -2.0377 C   0  0  0  0  0  0  0  0  0  0  0  0
   10.6692    5.6556   -1.1454 C   0  0  0  0  0  0  0  0  0  0  0  0
   11.8426    6.2188   -1.6465 C   0  0  0  0  0  0  0  0  0  0  0  0
   12.1712    6.1374   -3.0124 C   0  0  0  0  0  0  0  0  0  0  0  0
   13.3437    6.7654   -3.3481 O   0  0  0  0  0  0  0  0  0  0  0  0
   13.9424    6.3689   -4.5762 C   0  0  0  0  0  0  0  0  0  0  0  0
   11.3158    5.4908   -3.9149 C   0  0  0  0  0  0  0  0  0  0  0  0
   10.1499    4.8964   -3.4382 C   0  0  0  0  0  0  0  0  0  0  0  0
    9.1488    4.1843   -4.2688 N   0  0  0  0  0  0  0  0  0  0  0  0
    9.7268    3.5717   -5.4620 C   0  0  0  0  0  0  0  0  0  0  0  0
    8.5662    3.2806   -3.2264 C   0  0  1  0  0  0  0  0  0  0  0  0
    7.1009    2.2293   -3.5095 C   0  0  1  0  0  0  0  0  0  0  0  0
    6.3551    2.7581   -4.6503 O   0  0  0  0  0  0  0  0  0  0  0  0
    7.6577    0.8563   -3.9536 C   0  0  0  0  0  0  0  0  0  0  0  0
    7.8067   -0.1302   -3.2436 O   0  0  0  0  0  0  0  0  0  0  0  0
    8.0727    0.9116   -5.2586 O   0  0  0  0  0  0  0  0  0  0  0  0
    8.6801   -0.2895   -5.7347 C   0  0  0  0  0  0  0  0  0  0  0  0
    5.8890    1.8706   -2.1322 C   0  0  2  0  0  0  0  0  0  0  0  0
    4.5489    2.2587   -2.5306 O   0  0  0  0  0  0  0  0  0  0  0  0
    3.9306    1.4145   -3.3964 C   0  0  0  0  0  0  0  0  0  0  0  0
    2.5815    1.9557   -3.7629 C   0  0  0  0  0  0  0  0  0  0  0  0
    4.3925    0.3720   -3.8380 O   0  0  0  0  0  0  0  0  0  0  0  0
    7.5168    3.9019   -0.3113 C   0  0  2  0  0  0  0  0  0  0  0  0
    5.6809    4.5275    1.6400 H   0  0  0  0  0  0  0  0  0  0  0  0
    5.4434    2.9249    2.3673 H   0  0  0  0  0  0  0  0  0  0  0  0
    4.0549    3.9664    2.0464 H   0  0  0  0  0  0  0  0  0  0  0  0
    4.3474    3.7814   -0.3554 H   0  0  0  0  0  0  0  0  0  0  0  0
    4.1796    2.1898    0.3385 H   0  0  0  0  0  0  0  0  0  0  0  0
    6.1836    0.8152    1.1278 H   0  0  0  0  0  0  0  0  0  0  0  0
    8.6149    0.3397    0.5038 H   0  0  0  0  0  0  0  0  0  0  0  0
    8.8255    1.3275   -1.7953 H   0  0  0  0  0  0  0  0  0  0  0  0
    9.5176    2.4992   -0.6741 H   0  0  0  0  0  0  0  0  0  0  0  0
    5.7127    4.6373   -1.5823 H   0  0  0  0  0  0  0  0  0  0  0  0
    6.1749    4.1747   -3.1438 H   0  0  0  0  0  0  0  0  0  0  0  0
    7.3423    6.2445   -1.4289 H   0  0  0  0  0  0  0  0  0  0  0  0
    7.6173    5.9425   -3.1806 H   0  0  0  0  0  0  0  0  0  0  0  0
   10.4140    5.7516   -0.0960 H   0  0  0  0  0  0  0  0  0  0  0  0
   12.5138    6.7459   -0.9716 H   0  0  0  0  0  0  0  0  0  0  0  0
   14.9161    6.8633   -4.6469 H   0  0  0  0  0  0  0  0  0  0  0  0
   13.3463    6.6935   -5.4348 H   0  0  0  0  0  0  0  0  0  0  0  0
   14.1137    5.2873   -4.5994 H   0  0  0  0  0  0  0  0  0  0  0  0
   11.5438    5.4727   -4.9706 H   0  0  0  0  0  0  0  0  0  0  0  0
   10.1287    4.3286   -6.1432 H   0  0  0  0  0  0  0  0  0  0  0  0
    8.9560    3.0545   -6.0358 H   0  0  0  0  0  0  0  0  0  0  0  0
   10.5142    2.8510   -5.2138 H   0  0  0  0  0  0  0  0  0  0  0  0
    9.3923    2.5721   -3.0589 H   0  0  0  0  0  0  0  0  0  0  0  0
    7.0296    3.1150   -5.2547 H   0  0  0  0  0  0  0  0  0  0  0  0
    7.9930   -1.1362   -5.6476 H   0  0  0  0  0  0  0  0  0  0  0  0
    9.6099   -0.4821   -5.1900 H   0  0  0  0  0  0  0  0  0  0  0  0
    8.9250   -0.1469   -6.7909 H   0  0  0  0  0  0  0  0  0  0  0  0
    5.9063    0.7841   -1.9649 H   0  0  0  0  0  0  0  0  0  0  0  0
    2.1615    2.5297   -2.9314 H   0  0  0  0  0  0  0  0  0  0  0  0
    1.9017    1.1233   -3.9649 H   0  0  0  0  0  0  0  0  0  0  0  0
    2.6690    2.5915   -4.6465 H   0  0  0  0  0  0  0  0  0  0  0  0
    8.1988    3.7046    0.5251 H   0  0  0  0  0  0  0  0  0  0  0  0
  1  2  1  0  0  0  0
  1 34  1  0  0  0  0
  1 35  1  0  0  0  0
  1 36  1  0  0  0  0
  2 37  1  0  0  0  0
  2 38  1  0  0  0  0
  3  2  1  6  0  0  0
  3  4  1  0  0  0  0
  3 28  1  0  0  0  0
  3 33  1  0  0  0  0
  4  5  2  0  0  0  0
  4 39  1  0  0  0  0
  5  6  1  0  0  0  0
  5 40  1  0  0  0  0
  6  7  1  0  0  0  0
  6 41  1  0  0  0  0
  6 42  1  0  0  0  0
  7  8  1  0  0  0  0
  7 33  1  0  0  0  0
  8  9  1  0  0  0  0
  8 43  1  0  0  0  0
  8 44  1  0  0  0  0
  9 10  1  0  0  0  0
  9 45  1  0  0  0  0
  9 46  1  0  0  0  0
 10 11  1  1  0  0  0
 10 21  1  0  0  0  0
 10 33  1  0  0  0  0
 11 12  1  0  0  0  0
 11 18  2  0  0  0  0
 12 13  2  0  0  0  0
 12 47  1  0  0  0  0
 13 14  1  0  0  0  0
 13 48  1  0  0  0  0
 14 15  1  0  0  0  0
 14 17  2  0  0  0  0
 15 16  1  0  0  0  0
 16 49  1  0  0  0  0
 16 50  1  0  0  0  0
 16 51  1  0  0  0  0
 17 18  1  0  0  0  0
 17 52  1  0  0  0  0
 18 19  1  0  0  0  0
 19 20  1  0  0  0  0
 19 21  1  0  0  0  0
 20 53  1  0  0  0  0
 20 54  1  0  0  0  0
 20 55  1  0  0  0  0
 21 22  1  0  0  0  0
 21 56  1  6  0  0  0
 22 28  1  0  0  0  0
 22 24  1  6  0  0  0
 22 23  1  0  0  0  0
 23 57  1  0  0  0  0
 24 25  2  0  0  0  0
 24 26  1  0  0  0  0
 26 27  1  0  0  0  0
 27 58  1  0  0  0  0
 27 59  1  0  0  0  0
 27 60  1  0  0  0  0
 28 29  1  0  0  0  0
 28 61  1  1  0  0  0
 29 30  1  0  0  0  0
 30 31  1  0  0  0  0
 30 32  2  0  0  0  0
 31 62  1  0  0  0  0
 31 63  1  0  0  0  0
 31 64  1  0  0  0  0
 33 65  1  6  0  0  0
M  END
$$$$
