CHEBI:17864
 OpenBabel04242423113D

 82 85  0  0  1  0  0  0  0  0999 V2000
    3.4202   -1.3804    0.5184 C   0  0  0  0  0  0  0  0  0  0  0  0
    2.7745   -0.0061    0.3259 C   0  0  2  0  0  0  0  0  0  0  0  0
    1.2358   -0.1600    0.1580 C   0  0  0  0  0  0  0  0  0  0  0  0
    0.4807   -0.7934    1.3293 C   0  0  0  0  0  0  0  0  0  0  0  0
    0.6320   -0.1126    2.6776 C   0  0  0  0  0  0  0  0  0  0  0  0
    0.7379   -0.7607    3.7151 O   0  0  0  0  0  0  0  0  0  0  0  0
    0.5413    1.2601    2.6698 N   0  0  0  0  0  0  0  0  0  0  0  0
    0.6006    2.0368    3.9007 C   0  0  0  0  0  0  0  0  0  0  0  0
   -0.7717    2.2034    4.5222 C   0  0  0  0  0  0  0  0  0  0  0  0
   -0.7021    3.2060    5.9935 S   0  0  0  0  0  0  0  0  0  0  0  0
   -2.0432    3.4420    6.4790 O   0  0  0  0  0  0  0  0  0  0  0  0
    0.3667    2.7705    6.8592 O   0  0  0  0  0  0  0  0  0  0  0  0
   -0.2501    4.5990    5.3116 O   0  0  0  0  0  0  0  0  0  0  0  0
    3.3586    0.7716   -0.8951 C   0  0  1  0  0  0  0  0  0  0  0  0
    2.7156    2.1891   -1.0118 C   0  0  0  0  0  0  0  0  0  0  0  0
    3.7782    3.1368   -1.5698 C   0  0  0  0  0  0  0  0  0  0  0  0
    4.8740    2.2021   -2.0464 C   0  0  1  0  0  0  0  0  0  0  0  0
    6.2573    2.8019   -2.3267 C   0  0  2  0  0  0  0  0  0  0  0  0
    6.1658    4.0028   -3.2792 C   0  0  0  0  0  0  0  0  0  0  0  0
    7.5375    4.5145   -3.7108 C   0  0  0  0  0  0  0  0  0  0  0  0
    8.4396    3.4084   -4.2838 C   0  0  2  0  0  0  0  0  0  0  0  0
    7.9130    2.9617   -5.6642 C   0  0  0  0  0  0  0  0  0  0  0  0
    8.6936    1.8081   -6.3004 C   0  0  2  0  0  0  0  0  0  0  0  0
    7.9037    1.3566   -7.3995 O   0  0  0  0  0  0  0  0  0  0  0  0
    8.5406    0.3860   -8.5317 S   0  0  0  0  0  0  0  0  0  0  0  0
    7.5963    0.3177   -9.6248 O   0  0  0  0  0  0  0  0  0  0  0  0
    9.9288    0.7238   -8.7332 O   0  0  0  0  0  0  0  0  0  0  0  0
    8.4701   -1.0600   -7.8260 O   0  0  0  0  0  0  0  0  0  0  0  0
    8.9261    0.6632   -5.3161 C   0  0  0  0  0  0  0  0  0  0  0  0
    9.4756    1.1403   -3.9807 C   0  0  0  0  0  0  0  0  0  0  0  0
    8.5960    2.2139   -3.2891 C   0  0  1  0  0  0  0  0  0  0  0  0
    9.3840    2.6729   -2.0357 C   0  0  0  0  0  0  0  0  0  0  0  0
    7.1695    1.6749   -2.8970 C   0  0  1  0  0  0  0  0  0  0  0  0
    7.1769    0.4334   -1.9686 C   0  0  0  0  0  0  0  0  0  0  0  0
    5.7651   -0.0564   -1.5774 C   0  0  0  0  0  0  0  0  0  0  0  0
    4.8915    1.0688   -0.9863 C   0  0  2  0  0  0  0  0  0  0  0  0
    5.4510    1.5115    0.3860 C   0  0  0  0  0  0  0  0  0  0  0  0
    4.4919   -1.3035    0.7060 H   0  0  0  0  0  0  0  0  0  0  0  0
    3.2668   -2.0181   -0.3579 H   0  0  0  0  0  0  0  0  0  0  0  0
    3.0052   -1.8951    1.3904 H   0  0  0  0  0  0  0  0  0  0  0  0
    2.9637    0.5823    1.2318 H   0  0  0  0  0  0  0  0  0  0  0  0
    0.7801    0.8142   -0.0454 H   0  0  0  0  0  0  0  0  0  0  0  0
    1.0389   -0.7663   -0.7363 H   0  0  0  0  0  0  0  0  0  0  0  0
    0.7815   -1.8406    1.4435 H   0  0  0  0  0  0  0  0  0  0  0  0
   -0.5915   -0.8045    1.0966 H   0  0  0  0  0  0  0  0  0  0  0  0
    0.3748    1.7479    1.7999 H   0  0  0  0  0  0  0  0  0  0  0  0
    1.0390    3.0053    3.6399 H   0  0  0  0  0  0  0  0  0  0  0  0
    1.2842    1.5426    4.6002 H   0  0  0  0  0  0  0  0  0  0  0  0
   -1.1985    1.2381    4.8127 H   0  0  0  0  0  0  0  0  0  0  0  0
   -1.4709    2.6841    3.8294 H   0  0  0  0  0  0  0  0  0  0  0  0
   -0.8233    5.3083    5.6777 H   0  0  0  0  0  0  0  0  0  0  0  0
    3.0764    0.2123   -1.8003 H   0  0  0  0  0  0  0  0  0  0  0  0
    2.3654    2.5675   -0.0450 H   0  0  0  0  0  0  0  0  0  0  0  0
    1.8511    2.1503   -1.6850 H   0  0  0  0  0  0  0  0  0  0  0  0
    4.1385    3.8151   -0.7886 H   0  0  0  0  0  0  0  0  0  0  0  0
    3.3744    3.7512   -2.3809 H   0  0  0  0  0  0  0  0  0  0  0  0
    4.5148    1.7764   -2.9991 H   0  0  0  0  0  0  0  0  0  0  0  0
    6.6791    3.1745   -1.3879 H   0  0  0  0  0  0  0  0  0  0  0  0
    5.6298    4.8246   -2.7889 H   0  0  0  0  0  0  0  0  0  0  0  0
    5.5718    3.7385   -4.1618 H   0  0  0  0  0  0  0  0  0  0  0  0
    8.0304    4.9841   -2.8511 H   0  0  0  0  0  0  0  0  0  0  0  0
    7.4074    5.3130   -4.4516 H   0  0  0  0  0  0  0  0  0  0  0  0
    9.4314    3.8523   -4.4522 H   0  0  0  0  0  0  0  0  0  0  0  0
    7.9315    3.8167   -6.3541 H   0  0  0  0  0  0  0  0  0  0  0  0
    6.8555    2.6782   -5.6094 H   0  0  0  0  0  0  0  0  0  0  0  0
    9.6530    2.1985   -6.6612 H   0  0  0  0  0  0  0  0  0  0  0  0
    7.5469   -1.3762   -7.8955 H   0  0  0  0  0  0  0  0  0  0  0  0
    9.6418   -0.0457   -5.7490 H   0  0  0  0  0  0  0  0  0  0  0  0
    8.0020    0.0913   -5.1726 H   0  0  0  0  0  0  0  0  0  0  0  0
   10.4783    1.5555   -4.1571 H   0  0  0  0  0  0  0  0  0  0  0  0
    9.6285    0.2767   -3.3237 H   0  0  0  0  0  0  0  0  0  0  0  0
   10.3332    3.1414   -2.3219 H   0  0  0  0  0  0  0  0  0  0  0  0
    9.6311    1.8261   -1.3865 H   0  0  0  0  0  0  0  0  0  0  0  0
    8.8393    3.4006   -1.4297 H   0  0  0  0  0  0  0  0  0  0  0  0
    6.6848    1.3315   -3.8210 H   0  0  0  0  0  0  0  0  0  0  0  0
    7.7469    0.6407   -1.0579 H   0  0  0  0  0  0  0  0  0  0  0  0
    7.6855   -0.3987   -2.4686 H   0  0  0  0  0  0  0  0  0  0  0  0
    5.8736   -0.8881   -0.8756 H   0  0  0  0  0  0  0  0  0  0  0  0
    5.2824   -0.4715   -2.4719 H   0  0  0  0  0  0  0  0  0  0  0  0
    5.4737    0.6750    1.0911 H   0  0  0  0  0  0  0  0  0  0  0  0
    4.8488    2.3020    0.8441 H   0  0  0  0  0  0  0  0  0  0  0  0
    6.4760    1.8862    0.3239 H   0  0  0  0  0  0  0  0  0  0  0  0
  1 38  1  0  0  0  0
  1 39  1  0  0  0  0
  1 40  1  0  0  0  0
  2 14  1  0  0  0  0
  2  3  1  0  0  0  0
  2  1  1  0  0  0  0
  2 41  1  1  0  0  0
  3  4  1  0  0  0  0
  3 42  1  0  0  0  0
  3 43  1  0  0  0  0
  4  5  1  0  0  0  0
  4 44  1  0  0  0  0
  4 45  1  0  0  0  0
  5  6  2  0  0  0  0
  5  7  1  0  0  0  0
  7  8  1  0  0  0  0
  7 46  1  0  0  0  0
  8  9  1  0  0  0  0
  8 47  1  0  0  0  0
  8 48  1  0  0  0  0
  9 10  1  0  0  0  0
  9 49  1  0  0  0  0
  9 50  1  0  0  0  0
 10 11  2  0  0  0  0
 10 12  2  0  0  0  0
 10 13  1  0  0  0  0
 13 51  1  0  0  0  0
 14 15  1  0  0  0  0
 14 36  1  0  0  0  0
 14 52  1  6  0  0  0
 15 16  1  0  0  0  0
 15 53  1  0  0  0  0
 15 54  1  0  0  0  0
 16 17  1  0  0  0  0
 16 55  1  0  0  0  0
 16 56  1  0  0  0  0
 17 18  1  0  0  0  0
 17 36  1  0  0  0  0
 17 57  1  6  0  0  0
 18 19  1  0  0  0  0
 18 33  1  0  0  0  0
 18 58  1  1  0  0  0
 19 20  1  0  0  0  0
 19 59  1  0  0  0  0
 19 60  1  0  0  0  0
 20 21  1  0  0  0  0
 20 61  1  0  0  0  0
 20 62  1  0  0  0  0
 21 22  1  0  0  0  0
 21 31  1  0  0  0  0
 21 63  1  6  0  0  0
 22 23  1  0  0  0  0
 22 64  1  0  0  0  0
 22 65  1  0  0  0  0
 23 24  1  0  0  0  0
 23 29  1  0  0  0  0
 23 66  1  6  0  0  0
 24 25  1  0  0  0  0
 25 26  2  0  0  0  0
 25 27  2  0  0  0  0
 25 28  1  0  0  0  0
 28 67  1  0  0  0  0
 29 30  1  0  0  0  0
 29 68  1  0  0  0  0
 29 69  1  0  0  0  0
 30 31  1  0  0  0  0
 30 70  1  0  0  0  0
 30 71  1  0  0  0  0
 31 32  1  1  0  0  0
 31 33  1  0  0  0  0
 32 72  1  0  0  0  0
 32 73  1  0  0  0  0
 32 74  1  0  0  0  0
 33 34  1  0  0  0  0
 33 75  1  6  0  0  0
 34 35  1  0  0  0  0
 34 76  1  0  0  0  0
 34 77  1  0  0  0  0
 35 36  1  0  0  0  0
 35 78  1  0  0  0  0
 35 79  1  0  0  0  0
 36 37  1  1  0  0  0
 37 80  1  0  0  0  0
 37 81  1  0  0  0  0
 37 82  1  0  0  0  0
M  END
$$$$
