CHEBI:5721
 OpenBabel04242411053D

 58 63  0  0  0  0  0  0  0  0999 V2000
   -2.4468    1.6944   -2.1309 O   0  0  0  0  0  0  0  0  0  0  0  0
   -1.9609    0.6989   -1.6134 C   0  0  0  0  0  0  0  0  0  0  0  0
   -2.8519   -0.4148   -1.2423 C   0  0  0  0  0  0  0  0  0  0  0  0
   -2.3397   -1.5380   -0.7230 C   0  0  0  0  0  0  0  0  0  0  0  0
   -3.1990   -2.6614   -0.2895 C   0  0  0  0  0  0  0  0  0  0  0  0
   -2.7731   -3.9894   -0.4515 C   0  0  0  0  0  0  0  0  0  0  0  0
   -3.5609   -5.0596   -0.0080 C   0  0  0  0  0  0  0  0  0  0  0  0
   -4.7780   -4.8115    0.6277 C   0  0  0  0  0  0  0  0  0  0  0  0
   -5.6316   -5.7911    1.0842 O   0  0  0  0  0  0  0  0  0  0  0  0
   -5.0808   -6.9487    1.5860 C   0  0  0  0  0  0  0  0  0  0  0  0
   -5.5011   -8.1504    1.0059 C   0  0  0  0  0  0  0  0  0  0  0  0
   -6.3851   -8.1579   -0.0372 O   0  0  0  0  0  0  0  0  0  0  0  0
   -5.0347   -9.3755    1.4699 C   0  0  0  0  0  0  0  0  0  0  0  0
   -4.1457   -9.4038    2.5435 C   0  0  0  0  0  0  0  0  0  0  0  0
   -3.7229  -10.6400    2.9670 O   0  0  0  0  0  0  0  0  0  0  0  0
   -2.8718  -10.7138    4.0605 C   0  0  0  0  0  0  0  0  0  0  0  0
   -2.5378  -12.0916    4.4834 C   0  0  0  0  0  0  0  0  0  0  0  0
   -3.4984  -13.1117    4.3746 C   0  0  0  0  0  0  0  0  0  0  0  0
   -3.2167  -14.4162    4.7942 C   0  0  0  0  0  0  0  0  0  0  0  0
   -1.9649  -14.7085    5.3210 C   0  0  0  0  0  0  0  0  0  0  0  0
   -1.6501  -15.9603    5.7576 O   0  0  0  0  0  0  0  0  0  0  0  0
   -0.9903  -13.7250    5.4190 C   0  0  0  0  0  0  0  0  0  0  0  0
   -1.2728  -12.4229    4.9968 C   0  0  0  0  0  0  0  0  0  0  0  0
   -2.4120   -9.6428    4.7239 C   0  0  0  0  0  0  0  0  0  0  0  0
   -2.8122   -8.3007    4.2828 C   0  0  0  0  0  0  0  0  0  0  0  0
   -2.3968   -7.2921    4.8429 O   0  0  0  0  0  0  0  0  0  0  0  0
   -3.7373   -8.2132    3.1469 C   0  0  0  0  0  0  0  0  0  0  0  0
   -4.2133   -6.9783    2.6830 C   0  0  0  0  0  0  0  0  0  0  0  0
   -3.8696   -5.7975    3.2897 O   0  0  0  0  0  0  0  0  0  0  0  0
   -5.2229   -3.4996    0.7793 C   0  0  0  0  0  0  0  0  0  0  0  0
   -4.4360   -2.4334    0.3346 C   0  0  0  0  0  0  0  0  0  0  0  0
   -0.9834   -1.7544   -0.5483 O   0  0  0  0  0  0  0  0  0  0  0  0
   -0.1144   -0.7234   -0.8155 C   0  0  0  0  0  0  0  0  0  0  0  0
    1.2333   -0.9762   -0.5425 C   0  0  0  0  0  0  0  0  0  0  0  0
    2.1695    0.0273   -0.7593 C   0  0  0  0  0  0  0  0  0  0  0  0
    3.4951   -0.1688   -0.5091 O   0  0  0  0  0  0  0  0  0  0  0  0
    1.7821    1.2750   -1.2356 C   0  0  0  0  0  0  0  0  0  0  0  0
    0.4355    1.5207   -1.5145 C   0  0  0  0  0  0  0  0  0  0  0  0
    0.0743    2.7575   -1.9663 O   0  0  0  0  0  0  0  0  0  0  0  0
   -0.5219    0.5168   -1.3175 C   0  0  0  0  0  0  0  0  0  0  0  0
   -3.9082   -0.2515   -1.4130 H   0  0  0  0  0  0  0  0  0  0  0  0
   -1.8197   -4.2066   -0.9288 H   0  0  0  0  0  0  0  0  0  0  0  0
   -3.2050   -6.0737   -0.1623 H   0  0  0  0  0  0  0  0  0  0  0  0
   -6.6291   -7.2275   -0.2063 H   0  0  0  0  0  0  0  0  0  0  0  0
   -5.3692  -10.2973    1.0024 H   0  0  0  0  0  0  0  0  0  0  0  0
   -4.4867  -12.8965    3.9725 H   0  0  0  0  0  0  0  0  0  0  0  0
   -3.9833  -15.1794    4.7049 H   0  0  0  0  0  0  0  0  0  0  0  0
   -2.4295  -16.5311    5.6570 H   0  0  0  0  0  0  0  0  0  0  0  0
   -0.0122  -13.9687    5.8247 H   0  0  0  0  0  0  0  0  0  0  0  0
   -0.4856  -11.6766    5.0735 H   0  0  0  0  0  0  0  0  0  0  0  0
   -1.7693   -9.6936    5.5930 H   0  0  0  0  0  0  0  0  0  0  0  0
   -3.2381   -5.9854    4.0198 H   0  0  0  0  0  0  0  0  0  0  0  0
   -6.1740   -3.3017    1.2667 H   0  0  0  0  0  0  0  0  0  0  0  0
   -4.7986   -1.4222    0.5051 H   0  0  0  0  0  0  0  0  0  0  0  0
    1.5276   -1.9485   -0.1600 H   0  0  0  0  0  0  0  0  0  0  0  0
    3.6294   -1.0779   -0.1922 H   0  0  0  0  0  0  0  0  0  0  0  0
    2.5379    2.0407   -1.3830 H   0  0  0  0  0  0  0  0  0  0  0  0
    0.8500    3.3383   -2.0160 H   0  0  0  0  0  0  0  0  0  0  0  0
  1  2  2  0  0  0  0
  2  3  1  0  0  0  0
  2 40  1  0  0  0  0
  3  4  2  0  0  0  0
  3 41  1  0  0  0  0
  4  5  1  0  0  0  0
  4 32  1  0  0  0  0
  5  6  1  0  0  0  0
  5 31  2  0  0  0  0
  6  7  2  0  0  0  0
  6 42  1  0  0  0  0
  7  8  1  0  0  0  0
  7 43  1  0  0  0  0
  8  9  1  0  0  0  0
  8 30  2  0  0  0  0
  9 10  1  0  0  0  0
 10 11  1  0  0  0  0
 10 28  2  0  0  0  0
 11 12  1  0  0  0  0
 11 13  2  0  0  0  0
 12 44  1  0  0  0  0
 13 14  1  0  0  0  0
 13 45  1  0  0  0  0
 14 15  1  0  0  0  0
 14 27  2  0  0  0  0
 15 16  1  0  0  0  0
 16 17  1  0  0  0  0
 16 24  2  0  0  0  0
 17 18  1  0  0  0  0
 17 23  2  0  0  0  0
 18 19  2  0  0  0  0
 18 46  1  0  0  0  0
 19 20  1  0  0  0  0
 19 47  1  0  0  0  0
 20 21  1  0  0  0  0
 20 22  2  0  0  0  0
 21 48  1  0  0  0  0
 22 23  1  0  0  0  0
 22 49  1  0  0  0  0
 23 50  1  0  0  0  0
 24 25  1  0  0  0  0
 24 51  1  0  0  0  0
 25 26  2  0  0  0  0
 25 27  1  0  0  0  0
 27 28  1  0  0  0  0
 28 29  1  0  0  0  0
 29 52  1  0  0  0  0
 30 31  1  0  0  0  0
 30 53  1  0  0  0  0
 31 54  1  0  0  0  0
 32 33  1  0  0  0  0
 33 34  1  0  0  0  0
 33 40  2  0  0  0  0
 34 35  2  0  0  0  0
 34 55  1  0  0  0  0
 35 36  1  0  0  0  0
 35 37  1  0  0  0  0
 36 56  1  0  0  0  0
 37 38  2  0  0  0  0
 37 57  1  0  0  0  0
 38 39  1  0  0  0  0
 38 40  1  0  0  0  0
 39 58  1  0  0  0  0
M  END
$$$$
