CHEBI:17537
 OpenBabel04242416473D

 47 47  0  0  1  0  0  0  0  0999 V2000
    6.7891   -4.9384    0.5020 N   0  0  0  0  0  0  0  0  0  0  0  0
    7.5917   -4.1630   -0.1274 C   0  0  0  0  0  0  0  0  0  0  0  0
    8.2180   -4.5133   -1.2661 N   0  0  0  0  0  0  0  0  0  0  0  0
    7.8749   -2.8888    0.2208 N   0  0  0  0  0  0  0  0  0  0  0  0
    7.3996   -2.3290    1.4789 C   0  0  0  0  0  0  0  0  0  0  0  0
    7.4757   -0.8023    1.4501 C   0  0  0  0  0  0  0  0  0  0  0  0
    6.8597   -0.1163    0.2217 C   0  0  0  0  0  0  0  0  0  0  0  0
    5.3270   -0.1099    0.1534 C   0  0  2  0  0  0  0  0  0  0  0  0
    4.7612   -1.4418   -0.0467 N   0  0  0  0  0  0  0  0  0  0  0  0
    3.9775   -2.0591    0.9086 C   0  0  0  0  0  0  0  0  0  0  0  0
    3.8529   -1.5827    2.0338 O   0  0  0  0  0  0  0  0  0  0  0  0
    3.2484   -3.3423    0.4229 C   0  0  1  0  0  0  0  0  0  0  0  0
    4.1260   -4.1565   -0.4561 N   0  0  0  0  0  0  0  0  0  0  0  0
    2.7945   -4.2237    1.6023 C   0  0  0  0  0  0  0  0  0  0  0  0
    1.6155   -3.6942    2.3893 C   0  0  0  0  0  0  0  0  0  0  0  0
    0.3664   -3.5040    1.7820 C   0  0  0  0  0  0  0  0  0  0  0  0
   -0.7160   -3.0308    2.5262 C   0  0  0  0  0  0  0  0  0  0  0  0
   -0.5565   -2.7580    3.8792 C   0  0  0  0  0  0  0  0  0  0  0  0
   -1.6398   -2.3000    4.5697 O   0  0  0  0  0  0  0  0  0  0  0  0
    0.6700   -2.9504    4.5043 C   0  0  0  0  0  0  0  0  0  0  0  0
    1.7530   -3.4187    3.7583 C   0  0  0  0  0  0  0  0  0  0  0  0
    4.9027    0.7807   -1.0252 C   0  0  0  0  0  0  0  0  0  0  0  0
    5.1189    1.9758   -1.1467 O   0  0  0  0  0  0  0  0  0  0  0  0
    4.3029    0.1020   -2.0349 O   0  0  0  0  0  0  0  0  0  0  0  0
    6.7700   -5.8556    0.0498 H   0  0  0  0  0  0  0  0  0  0  0  0
    7.8440   -5.3385   -1.7179 H   0  0  0  0  0  0  0  0  0  0  0  0
    8.2908   -3.7460   -1.9240 H   0  0  0  0  0  0  0  0  0  0  0  0
    8.8358   -2.6352    0.0219 H   0  0  0  0  0  0  0  0  0  0  0  0
    8.0259   -2.7040    2.2973 H   0  0  0  0  0  0  0  0  0  0  0  0
    6.3812   -2.6529    1.6989 H   0  0  0  0  0  0  0  0  0  0  0  0
    8.5360   -0.5185    1.4862 H   0  0  0  0  0  0  0  0  0  0  0  0
    7.0209   -0.4018    2.3642 H   0  0  0  0  0  0  0  0  0  0  0  0
    7.2777   -0.5388   -0.7005 H   0  0  0  0  0  0  0  0  0  0  0  0
    7.2019    0.9279    0.2413 H   0  0  0  0  0  0  0  0  0  0  0  0
    4.9018    0.3391    1.0573 H   0  0  0  0  0  0  0  0  0  0  0  0
    4.6535   -1.7276   -1.0105 H   0  0  0  0  0  0  0  0  0  0  0  0
    2.3894   -3.0183   -0.1752 H   0  0  0  0  0  0  0  0  0  0  0  0
    4.9890   -4.3741    0.0731 H   0  0  0  0  0  0  0  0  0  0  0  0
    4.4408   -3.6164   -1.2531 H   0  0  0  0  0  0  0  0  0  0  0  0
    3.6446   -4.3924    2.2776 H   0  0  0  0  0  0  0  0  0  0  0  0
    2.5036   -5.2180    1.2354 H   0  0  0  0  0  0  0  0  0  0  0  0
    0.2243   -3.7281    0.7278 H   0  0  0  0  0  0  0  0  0  0  0  0
   -1.6811   -2.8787    2.0525 H   0  0  0  0  0  0  0  0  0  0  0  0
   -1.3679   -2.1419    5.4884 H   0  0  0  0  0  0  0  0  0  0  0  0
    0.8068   -2.7419    5.5601 H   0  0  0  0  0  0  0  0  0  0  0  0
    2.7141   -3.5579    4.2494 H   0  0  0  0  0  0  0  0  0  0  0  0
    4.1070    0.8017   -2.6947 H   0  0  0  0  0  0  0  0  0  0  0  0
  1  2  2  0  0  0  0
  1 25  1  0  0  0  0
  2  3  1  0  0  0  0
  2  4  1  0  0  0  0
  3 26  1  0  0  0  0
  3 27  1  0  0  0  0
  4  5  1  0  0  0  0
  4 28  1  0  0  0  0
  5  6  1  0  0  0  0
  5 29  1  0  0  0  0
  5 30  1  0  0  0  0
  6  7  1  0  0  0  0
  6 31  1  0  0  0  0
  6 32  1  0  0  0  0
  7 33  1  0  0  0  0
  7 34  1  0  0  0  0
  8 22  1  0  0  0  0
  8  9  1  0  0  0  0
  8  7  1  0  0  0  0
  8 35  1  1  0  0  0
  9 10  1  0  0  0  0
  9 36  1  0  0  0  0
 10 11  2  0  0  0  0
 10 12  1  0  0  0  0
 12 13  1  0  0  0  0
 12 14  1  0  0  0  0
 12 37  1  6  0  0  0
 13 38  1  0  0  0  0
 13 39  1  0  0  0  0
 14 15  1  0  0  0  0
 14 40  1  0  0  0  0
 14 41  1  0  0  0  0
 15 16  1  0  0  0  0
 15 21  2  0  0  0  0
 16 17  2  0  0  0  0
 16 42  1  0  0  0  0
 17 18  1  0  0  0  0
 17 43  1  0  0  0  0
 18 19  1  0  0  0  0
 18 20  2  0  0  0  0
 19 44  1  0  0  0  0
 20 21  1  0  0  0  0
 20 45  1  0  0  0  0
 21 46  1  0  0  0  0
 22 23  2  0  0  0  0
 22 24  1  0  0  0  0
 24 47  1  0  0  0  0
M  END
$$$$
