CHEBI:17863
 OpenBabel04242423103D

 43 44  0  0  1  0  0  0  0  0999 V2000
    5.6433    1.8461   -6.7988 O   0  0  0  0  0  0  0  0  0  0  0  0
    5.6552    0.7219   -6.3037 C   0  0  0  0  0  0  0  0  0  0  0  0
    4.6249    0.2627   -5.5505 O   0  0  0  0  0  0  0  0  0  0  0  0
    4.5495   -1.1476   -5.2118 C   0  0  2  0  0  0  0  0  0  0  0  0
    5.1771   -1.3870   -3.8341 C   0  0  0  0  0  0  0  0  0  0  0  0
    4.4196   -0.6976   -2.8370 O   0  0  0  0  0  0  0  0  0  0  0  0
    5.1321   -2.0061   -6.3414 C   0  0  1  0  0  0  0  0  0  0  0  0
    4.4498   -1.7798   -7.5884 O   0  0  0  0  0  0  0  0  0  0  0  0
    3.0789   -2.1962   -7.6342 C   0  0  2  0  0  0  0  0  0  0  0  0
    2.9298   -3.5182   -7.1408 O   0  0  0  0  0  0  0  0  0  0  0  0
    1.5496   -3.8859   -6.9582 C   0  0  2  0  0  0  0  0  0  0  0  0
    1.5127   -5.4169   -6.8471 C   0  0  0  0  0  0  0  0  0  0  0  0
    1.8740   -6.0200   -8.0895 O   0  0  0  0  0  0  0  0  0  0  0  0
    0.6290   -3.3548   -8.0856 C   0  0  1  0  0  0  0  0  0  0  0  0
    0.0302   -2.1249   -7.6288 O   0  0  0  0  0  0  0  0  0  0  0  0
    1.4006   -3.0486   -9.3787 C   0  0  2  0  0  0  0  0  0  0  0  0
    1.8005   -4.2414  -10.0550 O   0  0  0  0  0  0  0  0  0  0  0  0
    2.6036   -2.1201   -9.1083 C   0  0  1  0  0  0  0  0  0  0  0  0
    2.2518   -0.7597   -9.4377 O   0  0  0  0  0  0  0  0  0  0  0  0
    6.5985   -1.6364   -6.6011 C   0  0  2  0  0  0  0  0  0  0  0  0
    7.4379   -2.4205   -5.7325 O   0  0  0  0  0  0  0  0  0  0  0  0
    6.9002   -0.1558   -6.3560 C   0  0  1  0  0  0  0  0  0  0  0  0
    7.8655    0.2891   -7.3146 O   0  0  0  0  0  0  0  0  0  0  0  0
    3.4770   -1.3454   -5.1158 H   0  0  0  0  0  0  0  0  0  0  0  0
    6.2005   -1.0139   -3.7623 H   0  0  0  0  0  0  0  0  0  0  0  0
    5.1698   -2.4510   -3.5801 H   0  0  0  0  0  0  0  0  0  0  0  0
    4.3234    0.2271   -3.1327 H   0  0  0  0  0  0  0  0  0  0  0  0
    5.0685   -3.0698   -6.0827 H   0  0  0  0  0  0  0  0  0  0  0  0
    2.5053   -1.4930   -7.0196 H   0  0  0  0  0  0  0  0  0  0  0  0
    1.2350   -3.4704   -5.9925 H   0  0  0  0  0  0  0  0  0  0  0  0
    2.2287   -5.7580   -6.0918 H   0  0  0  0  0  0  0  0  0  0  0  0
    0.5109   -5.7635   -6.5755 H   0  0  0  0  0  0  0  0  0  0  0  0
    1.9771   -6.9751   -7.9192 H   0  0  0  0  0  0  0  0  0  0  0  0
   -0.1905   -4.0600   -8.2650 H   0  0  0  0  0  0  0  0  0  0  0  0
   -0.7267   -1.9444   -8.2189 H   0  0  0  0  0  0  0  0  0  0  0  0
    0.7219   -2.5343  -10.0703 H   0  0  0  0  0  0  0  0  0  0  0  0
    2.1120   -4.8923   -9.3875 H   0  0  0  0  0  0  0  0  0  0  0  0
    3.4303   -2.3882   -9.7766 H   0  0  0  0  0  0  0  0  0  0  0  0
    1.5698   -0.4710   -8.8048 H   0  0  0  0  0  0  0  0  0  0  0  0
    6.8723   -1.9181   -7.6259 H   0  0  0  0  0  0  0  0  0  0  0  0
    8.3506   -2.2972   -6.0607 H   0  0  0  0  0  0  0  0  0  0  0  0
    7.3955   -0.0225   -5.3871 H   0  0  0  0  0  0  0  0  0  0  0  0
    7.6746    1.2371   -7.4728 H   0  0  0  0  0  0  0  0  0  0  0  0
  1  2  2  0  0  0  0
  2  3  1  0  0  0  0
  2 22  1  0  0  0  0
  3  4  1  0  0  0  0
  4  5  1  0  0  0  0
  4  7  1  0  0  0  0
  4 24  1  1  0  0  0
  5  6  1  0  0  0  0
  5 25  1  0  0  0  0
  5 26  1  0  0  0  0
  6 27  1  0  0  0  0
  7 20  1  0  0  0  0
  7  8  1  0  0  0  0
  7 28  1  1  0  0  0
  8  9  1  0  0  0  0
  9 10  1  0  0  0  0
  9 18  1  0  0  0  0
  9 29  1  1  0  0  0
 10 11  1  0  0  0  0
 11 14  1  0  0  0  0
 11 12  1  0  0  0  0
 11 30  1  1  0  0  0
 12 13  1  0  0  0  0
 12 31  1  0  0  0  0
 12 32  1  0  0  0  0
 13 33  1  0  0  0  0
 14 15  1  0  0  0  0
 14 16  1  0  0  0  0
 14 34  1  6  0  0  0
 15 35  1  0  0  0  0
 16 18  1  0  0  0  0
 16 17  1  0  0  0  0
 16 36  1  6  0  0  0
 17 37  1  0  0  0  0
 18 19  1  0  0  0  0
 18 38  1  6  0  0  0
 19 39  1  0  0  0  0
 20 21  1  0  0  0  0
 20 22  1  0  0  0  0
 20 40  1  6  0  0  0
 21 41  1  0  0  0  0
 22 23  1  0  0  0  0
 22 42  1  1  0  0  0
 23 43  1  0  0  0  0
M  END
$$$$
