CHEBI:16256
 OpenBabel04242414043D

 13 12  0  0  0  0  0  0  0  0999 V2000
    0.8536   -0.0764   -0.2034 C   0  0  0  0  0  0  0  0  0  0  0  0
    2.2733   -0.0178    0.3511 C   0  0  0  0  0  0  0  0  0  0  0  0
    2.2849    0.9318    1.5161 C   0  0  0  0  0  0  0  0  0  0  0  0
    2.6846    0.6222    2.6371 O   0  0  0  0  0  0  0  0  0  0  0  0
    2.7759   -1.4209    0.6085 C   0  0  0  0  0  0  0  0  0  0  0  0
    2.8222   -2.2641   -0.2806 O   0  0  0  0  0  0  0  0  0  0  0  0
    3.1771   -1.7141    1.8611 O   0  0  0  0  0  0  0  0  0  0  0  0
    0.4809    0.9245   -0.4469 H   0  0  0  0  0  0  0  0  0  0  0  0
    0.1650   -0.5189    0.5259 H   0  0  0  0  0  0  0  0  0  0  0  0
    0.8070   -0.6833   -1.1140 H   0  0  0  0  0  0  0  0  0  0  0  0
    2.9451    0.4218   -0.3965 H   0  0  0  0  0  0  0  0  0  0  0  0
    1.9409    1.9598    1.3064 H   0  0  0  0  0  0  0  0  0  0  0  0
    3.1103   -0.9652    2.5033 H   0  0  0  0  0  0  0  0  0  0  0  0
  1  2  1  0  0  0  0
  1  8  1  0  0  0  0
  1  9  1  0  0  0  0
  1 10  1  0  0  0  0
  2  3  1  0  0  0  0
  2  5  1  0  0  0  0
  2 11  1  0  0  0  0
  3  4  2  0  0  0  0
  3 12  1  0  0  0  0
  5  6  2  0  0  0  0
  5  7  1  0  0  0  0
  7 13  1  0  0  0  0
M  END
$$$$
