CHEBI:15618
 OpenBabel04242412543D

 81 84  0  0  1  0  0  0  0  0999 V2000
   -3.3828    4.6772   -2.3093 C   0  0  0  0  0  0  0  0  0  0  0  0
   -3.6149    4.0087   -1.1733 C   0  0  0  0  0  0  0  0  0  0  0  0
   -2.9618    4.2558    0.0834 C   0  0  0  0  0  0  0  0  0  0  0  0
   -1.6616    4.4272    0.3866 C   0  0  0  0  0  0  0  0  0  0  0  0
   -0.5025    4.3582   -0.5524 C   0  0  0  0  0  0  0  0  0  0  0  0
   -1.4183    4.5624    1.8729 C   0  0  1  0  0  0  0  0  0  0  0  0
   -0.8526    5.8987    2.3829 C   0  0  0  0  0  0  0  0  0  0  0  0
    0.5077    6.2641    1.8687 C   0  0  0  0  0  0  0  0  0  0  0  0
    0.6619    7.4231    1.1540 N   0  0  0  0  0  0  0  0  0  0  0  0
    1.9641    7.5915    0.7687 C   0  0  0  0  0  0  0  0  0  0  0  0
    2.3072    8.7164   -0.0304 C   0  0  0  0  0  0  0  0  0  0  0  0
    1.6761    9.9014    0.0262 C   0  0  0  0  0  0  0  0  0  0  0  0
    0.5985   10.1757    0.8376 N   0  0  0  0  0  0  0  0  0  0  0  0
    0.2571   11.4056    0.5784 C   0  0  0  0  0  0  0  0  0  0  0  0
   -0.8991   12.1201    1.1767 C   0  0  0  0  0  0  0  0  0  0  0  0
   -1.7053   11.5429    2.0770 C   0  0  0  0  0  0  0  0  0  0  0  0
   -1.5316   10.2780    2.5513 N   0  0  0  0  0  0  0  0  0  0  0  0
   -2.6253    9.7721    3.2113 C   0  0  0  0  0  0  0  0  0  0  0  0
   -2.7090    8.6580    3.7026 O   0  0  0  0  0  0  0  0  0  0  0  0
   -3.7331   10.8097    3.1170 C   0  0  2  0  0  0  0  0  0  0  0  0
   -4.7841   10.3647    2.1078 C   0  0  0  0  0  0  0  0  0  0  0  0
   -2.9515   12.0347    2.6382 C   0  0  0  0  0  0  0  0  0  0  0  0
   -3.3617   13.2883    2.9010 C   0  0  0  0  0  0  0  0  0  0  0  0
   -2.6367   14.5793    2.7044 C   0  0  0  0  0  0  0  0  0  0  0  0
    1.0953   12.0669   -0.4389 C   0  0  0  0  0  0  0  0  0  0  0  0
    0.9219   13.4474   -0.9437 C   0  0  0  0  0  0  0  0  0  0  0  0
    1.9731   11.0960   -0.7479 C   0  0  0  0  0  0  0  0  0  0  0  0
    3.0565   11.1688   -1.7906 C   0  0  0  0  0  0  0  0  0  0  0  0
    4.4920   11.0824   -1.2634 C   0  0  0  0  0  0  0  0  0  0  0  0
    4.8672   12.2431   -0.3775 C   0  0  0  0  0  0  0  0  0  0  0  0
    4.3846   13.3622   -0.4530 O   0  0  0  0  0  0  0  0  0  0  0  0
    5.8609   11.9399    0.4897 O   0  0  0  0  0  0  0  0  0  0  0  0
    2.6891    6.5256    1.2780 C   0  0  0  0  0  0  0  0  0  0  0  0
    4.1696    6.3115    1.1424 C   0  0  0  0  0  0  0  0  0  0  0  0
    4.9795    7.3569    1.9016 C   0  0  0  0  0  0  0  0  0  0  0  0
    6.4440    7.0789    1.7523 C   0  0  0  0  0  0  0  0  0  0  0  0
    7.0263    6.0562    2.0697 O   0  0  0  0  0  0  0  0  0  0  0  0
    7.1218    8.1068    1.1996 O   0  0  0  0  0  0  0  0  0  0  0  0
    1.7593    5.6751    1.9776 C   0  0  0  0  0  0  0  0  0  0  0  0
    2.1050    4.4057    2.6770 C   0  0  0  0  0  0  0  0  0  0  0  0
   -2.7536    4.3636    2.3704 N   0  0  0  0  0  0  0  0  0  0  0  0
   -3.6838    4.2055    1.3791 C   0  0  0  0  0  0  0  0  0  0  0  0
   -4.8792    4.0351    1.5357 O   0  0  0  0  0  0  0  0  0  0  0  0
   -3.9403    4.4389   -3.2096 H   0  0  0  0  0  0  0  0  0  0  0  0
   -2.6563    5.4809   -2.3678 H   0  0  0  0  0  0  0  0  0  0  0  0
   -4.3872    3.2411   -1.1548 H   0  0  0  0  0  0  0  0  0  0  0  0
   -0.7691    3.9009   -1.5094 H   0  0  0  0  0  0  0  0  0  0  0  0
    0.2961    3.7420   -0.1261 H   0  0  0  0  0  0  0  0  0  0  0  0
   -0.1069    5.3552   -0.7604 H   0  0  0  0  0  0  0  0  0  0  0  0
   -0.8177    3.7198    2.2299 H   0  0  0  0  0  0  0  0  0  0  0  0
   -0.8068    5.8717    3.4801 H   0  0  0  0  0  0  0  0  0  0  0  0
   -1.5612    6.7028    2.1407 H   0  0  0  0  0  0  0  0  0  0  0  0
   -0.0727    8.0886    0.9434 H   0  0  0  0  0  0  0  0  0  0  0  0
    3.1436    8.5741   -0.7032 H   0  0  0  0  0  0  0  0  0  0  0  0
   -1.1273   13.1018    0.7854 H   0  0  0  0  0  0  0  0  0  0  0  0
   -0.6918    9.7372    2.3706 H   0  0  0  0  0  0  0  0  0  0  0  0
   -4.1611   10.9696    4.1122 H   0  0  0  0  0  0  0  0  0  0  0  0
   -4.3496   10.1913    1.1158 H   0  0  0  0  0  0  0  0  0  0  0  0
   -5.5724   11.1172    2.0029 H   0  0  0  0  0  0  0  0  0  0  0  0
   -5.2494    9.4247    2.4237 H   0  0  0  0  0  0  0  0  0  0  0  0
   -4.3368   13.4068    3.3755 H   0  0  0  0  0  0  0  0  0  0  0  0
   -1.5698   14.4535    2.5131 H   0  0  0  0  0  0  0  0  0  0  0  0
   -2.7237   15.1822    3.6151 H   0  0  0  0  0  0  0  0  0  0  0  0
   -3.0854   15.1430    1.8817 H   0  0  0  0  0  0  0  0  0  0  0  0
   -0.0091   13.5269   -1.5146 H   0  0  0  0  0  0  0  0  0  0  0  0
    1.7393   13.7579   -1.5993 H   0  0  0  0  0  0  0  0  0  0  0  0
    0.8828   14.1625   -0.1162 H   0  0  0  0  0  0  0  0  0  0  0  0
    2.9548   12.0882   -2.3791 H   0  0  0  0  0  0  0  0  0  0  0  0
    2.8990   10.3535   -2.5091 H   0  0  0  0  0  0  0  0  0  0  0  0
    5.1876   11.0828   -2.1107 H   0  0  0  0  0  0  0  0  0  0  0  0
    4.6450   10.1494   -0.7152 H   0  0  0  0  0  0  0  0  0  0  0  0
    6.1698   11.0130    0.4542 H   0  0  0  0  0  0  0  0  0  0  0  0
    4.4385    6.3310    0.0782 H   0  0  0  0  0  0  0  0  0  0  0  0
    4.4379    5.3092    1.4975 H   0  0  0  0  0  0  0  0  0  0  0  0
    4.7384    7.3628    2.9704 H   0  0  0  0  0  0  0  0  0  0  0  0
    4.7679    8.3639    1.5238 H   0  0  0  0  0  0  0  0  0  0  0  0
    8.0489    7.7799    1.1992 H   0  0  0  0  0  0  0  0  0  0  0  0
    2.5221    3.6856    1.9648 H   0  0  0  0  0  0  0  0  0  0  0  0
    1.2342    3.9448    3.1491 H   0  0  0  0  0  0  0  0  0  0  0  0
    2.8479    4.5907    3.4590 H   0  0  0  0  0  0  0  0  0  0  0  0
   -3.0285    4.3816    3.3431 H   0  0  0  0  0  0  0  0  0  0  0  0
  1  2  2  0  0  0  0
  1 44  1  0  0  0  0
  1 45  1  0  0  0  0
  2  3  1  0  0  0  0
  2 46  1  0  0  0  0
  3  4  2  0  0  0  0
  3 42  1  0  0  0  0
  4  5  1  0  0  0  0
  4  6  1  0  0  0  0
  5 47  1  0  0  0  0
  5 48  1  0  0  0  0
  5 49  1  0  0  0  0
  6  7  1  0  0  0  0
  6 41  1  0  0  0  0
  6 50  1  1  0  0  0
  7  8  1  0  0  0  0
  7 51  1  0  0  0  0
  7 52  1  0  0  0  0
  8  9  1  0  0  0  0
  8 39  2  0  0  0  0
  9 10  1  0  0  0  0
  9 53  1  0  0  0  0
 10 11  1  0  0  0  0
 10 33  2  0  0  0  0
 11 12  2  0  0  0  0
 11 54  1  0  0  0  0
 12 13  1  0  0  0  0
 12 27  1  0  0  0  0
 13 14  2  0  0  0  0
 14 15  1  0  0  0  0
 14 25  1  0  0  0  0
 15 16  2  0  0  0  0
 15 55  1  0  0  0  0
 16 17  1  0  0  0  0
 16 22  1  0  0  0  0
 17 18  1  0  0  0  0
 17 56  1  0  0  0  0
 18 19  2  0  0  0  0
 18 20  1  0  0  0  0
 20 21  1  0  0  0  0
 20 22  1  0  0  0  0
 20 57  1  1  0  0  0
 21 58  1  0  0  0  0
 21 59  1  0  0  0  0
 21 60  1  0  0  0  0
 22 23  2  0  0  0  0
 23 24  1  0  0  0  0
 23 61  1  0  0  0  0
 24 62  1  0  0  0  0
 24 63  1  0  0  0  0
 24 64  1  0  0  0  0
 25 26  1  0  0  0  0
 25 27  2  0  0  0  0
 26 65  1  0  0  0  0
 26 66  1  0  0  0  0
 26 67  1  0  0  0  0
 27 28  1  0  0  0  0
 28 29  1  0  0  0  0
 28 68  1  0  0  0  0
 28 69  1  0  0  0  0
 29 30  1  0  0  0  0
 29 70  1  0  0  0  0
 29 71  1  0  0  0  0
 30 31  2  0  0  0  0
 30 32  1  0  0  0  0
 32 72  1  0  0  0  0
 33 34  1  0  0  0  0
 33 39  1  0  0  0  0
 34 35  1  0  0  0  0
 34 73  1  0  0  0  0
 34 74  1  0  0  0  0
 35 36  1  0  0  0  0
 35 75  1  0  0  0  0
 35 76  1  0  0  0  0
 36 37  2  0  0  0  0
 36 38  1  0  0  0  0
 38 77  1  0  0  0  0
 39 40  1  0  0  0  0
 40 78  1  0  0  0  0
 40 79  1  0  0  0  0
 40 80  1  0  0  0  0
 41 42  1  0  0  0  0
 41 81  1  0  0  0  0
 42 43  2  0  0  0  0
M  END
$$$$
