CHEBI:16267
 OpenBabel04242414053D

 39 40  0  0  1  0  0  0  0  0999 V2000
   -3.7725    0.3229   -1.1242 N   0  0  0  0  0  0  0  0  0  0  0  0
   -2.6790   -0.0278   -0.9439 C   0  0  0  0  0  0  0  0  0  0  0  0
   -1.2882   -0.4860   -0.7102 C   0  0  2  0  0  0  0  0  0  0  0  0
   -0.9731   -0.3689    0.6896 O   0  0  0  0  0  0  0  0  0  0  0  0
    0.2082   -1.0861    1.0631 C   0  0  2  0  0  0  0  0  0  0  0  0
    0.0367   -2.4859    0.8481 O   0  0  0  0  0  0  0  0  0  0  0  0
    1.1991   -3.2352    1.2356 C   0  0  2  0  0  0  0  0  0  0  0  0
    1.0066   -4.7080    0.8515 C   0  0  0  0  0  0  0  0  0  0  0  0
    2.2033   -5.4599    1.0191 O   0  0  0  0  0  0  0  0  0  0  0  0
    1.4452   -3.0785    2.7454 C   0  0  1  0  0  0  0  0  0  0  0  0
    2.5986   -3.8131    3.1672 O   0  0  0  0  0  0  0  0  0  0  0  0
    1.6337   -1.5963    3.0699 C   0  0  2  0  0  0  0  0  0  0  0  0
    1.7704   -1.4430    4.4903 O   0  0  0  0  0  0  0  0  0  0  0  0
    0.4478   -0.7838    2.5562 C   0  0  1  0  0  0  0  0  0  0  0  0
    0.7187    0.6095    2.7736 O   0  0  0  0  0  0  0  0  0  0  0  0
   -0.2907    0.3175   -1.5302 C   0  0  0  0  0  0  0  0  0  0  0  0
    0.4141   -0.2929   -2.5819 C   0  0  0  0  0  0  0  0  0  0  0  0
    1.3836    0.4179   -3.2933 C   0  0  0  0  0  0  0  0  0  0  0  0
    1.6477    1.7410   -2.9564 C   0  0  0  0  0  0  0  0  0  0  0  0
    2.6006    2.4642   -3.6092 O   0  0  0  0  0  0  0  0  0  0  0  0
    0.9491    2.3694   -1.9335 C   0  0  0  0  0  0  0  0  0  0  0  0
   -0.0207    1.6629   -1.2229 C   0  0  0  0  0  0  0  0  0  0  0  0
   -1.2466   -1.5439   -0.9981 H   0  0  0  0  0  0  0  0  0  0  0  0
    1.0577   -0.7156    0.4760 H   0  0  0  0  0  0  0  0  0  0  0  0
    2.0729   -2.8640    0.6818 H   0  0  0  0  0  0  0  0  0  0  0  0
    0.2107   -5.1700    1.4455 H   0  0  0  0  0  0  0  0  0  0  0  0
    0.7038   -4.7862   -0.1981 H   0  0  0  0  0  0  0  0  0  0  0  0
    2.5775   -5.2109    1.8923 H   0  0  0  0  0  0  0  0  0  0  0  0
    0.5901   -3.4680    3.3125 H   0  0  0  0  0  0  0  0  0  0  0  0
    2.7827   -3.4916    4.0760 H   0  0  0  0  0  0  0  0  0  0  0  0
    2.5735   -1.2271    2.6403 H   0  0  0  0  0  0  0  0  0  0  0  0
    1.7302   -0.4775    4.6494 H   0  0  0  0  0  0  0  0  0  0  0  0
   -0.4480   -1.0205    3.1436 H   0  0  0  0  0  0  0  0  0  0  0  0
   -0.0251    1.0928    2.3629 H   0  0  0  0  0  0  0  0  0  0  0  0
    0.2246   -1.3315   -2.8483 H   0  0  0  0  0  0  0  0  0  0  0  0
    1.9227   -0.0756   -4.0964 H   0  0  0  0  0  0  0  0  0  0  0  0
    3.0102    1.9036   -4.2883 H   0  0  0  0  0  0  0  0  0  0  0  0
    1.1640    3.4055   -1.6858 H   0  0  0  0  0  0  0  0  0  0  0  0
   -0.5547    2.1655   -0.4181 H   0  0  0  0  0  0  0  0  0  0  0  0
  1  2  3  0  0  0  0
  3 16  1  0  0  0  0
  3  4  1  0  0  0  0
  3  2  1  0  0  0  0
  3 23  1  6  0  0  0
  5  6  1  0  0  0  0
  5 14  1  0  0  0  0
  5  4  1  0  0  0  0
  5 24  1  6  0  0  0
  6  7  1  0  0  0  0
  7 10  1  0  0  0  0
  7  8  1  0  0  0  0
  7 25  1  6  0  0  0
  8  9  1  0  0  0  0
  8 26  1  0  0  0  0
  8 27  1  0  0  0  0
  9 28  1  0  0  0  0
 10 11  1  0  0  0  0
 10 12  1  0  0  0  0
 10 29  1  1  0  0  0
 11 30  1  0  0  0  0
 12 13  1  0  0  0  0
 12 14  1  0  0  0  0
 12 31  1  6  0  0  0
 13 32  1  0  0  0  0
 14 15  1  0  0  0  0
 14 33  1  1  0  0  0
 15 34  1  0  0  0  0
 16 17  1  0  0  0  0
 16 22  2  0  0  0  0
 17 18  2  0  0  0  0
 17 35  1  0  0  0  0
 18 19  1  0  0  0  0
 18 36  1  0  0  0  0
 19 20  1  0  0  0  0
 19 21  2  0  0  0  0
 20 37  1  0  0  0  0
 21 22  1  0  0  0  0
 21 38  1  0  0  0  0
 22 39  1  0  0  0  0
M  END
$$$$
