CHEBI:27410
 OpenBabel04252409513D

 19 19  0  0  0  0  0  0  0  0999 V2000
   -1.7391   -1.5216    0.0271 C   0  0  0  0  0  0  0  0  0  0  0  0
   -0.5132   -0.7449   -0.0110 N   0  0  0  0  0  0  0  0  0  0  0  0
    0.7168   -1.3811    0.0767 C   0  0  0  0  0  0  0  0  0  0  0  0
    1.8687   -0.6883    0.0473 C   0  0  0  0  0  0  0  0  0  0  0  0
    3.1919   -1.3725    0.1555 C   0  0  0  0  0  0  0  0  0  0  0  0
    3.2921   -2.6005   -0.4242 N   0  0  0  0  0  0  0  0  0  0  0  0
    4.1629   -0.8418    0.6809 O   0  0  0  0  0  0  0  0  0  0  0  0
    1.8150    0.7587   -0.0246 C   0  0  0  0  0  0  0  0  0  0  0  0
    0.6440    1.4044   -0.0985 C   0  0  0  0  0  0  0  0  0  0  0  0
   -0.6334    0.6429   -0.1004 C   0  0  0  0  0  0  0  0  0  0  0  0
   -1.6990    1.2478   -0.1722 O   0  0  0  0  0  0  0  0  0  0  0  0
   -1.5370   -2.5959   -0.0142 H   0  0  0  0  0  0  0  0  0  0  0  0
   -2.3688   -1.2436   -0.8244 H   0  0  0  0  0  0  0  0  0  0  0  0
   -2.2771   -1.2859    0.9507 H   0  0  0  0  0  0  0  0  0  0  0  0
    0.6950   -2.4612    0.1796 H   0  0  0  0  0  0  0  0  0  0  0  0
    2.5891   -2.9815   -1.0400 H   0  0  0  0  0  0  0  0  0  0  0  0
    4.2129   -3.0205   -0.4358 H   0  0  0  0  0  0  0  0  0  0  0  0
    2.7522    1.3078   -0.0073 H   0  0  0  0  0  0  0  0  0  0  0  0
    0.5689    2.4828   -0.1475 H   0  0  0  0  0  0  0  0  0  0  0  0
  1  2  1  0  0  0  0
  1 12  1  0  0  0  0
  1 13  1  0  0  0  0
  1 14  1  0  0  0  0
  2  3  1  0  0  0  0
  2 10  1  0  0  0  0
  3  4  2  0  0  0  0
  3 15  1  0  0  0  0
  4  5  1  0  0  0  0
  4  8  1  0  0  0  0
  5  6  1  0  0  0  0
  5  7  2  0  0  0  0
  6 16  1  0  0  0  0
  6 17  1  0  0  0  0
  8  9  2  0  0  0  0
  8 18  1  0  0  0  0
  9 10  1  0  0  0  0
  9 19  1  0  0  0  0
 10 11  2  0  0  0  0
M  END
$$$$
