CHEBI:16522
 OpenBabel04242414413D

 29 30  0  0  0  0  0  0  0  0999 V2000
    2.2729    3.1847    0.2355 C   0  0  0  0  0  0  0  0  0  0  0  0
    2.6467    1.9944    1.0775 C   0  0  0  0  0  0  0  0  0  0  0  0
    3.1523    0.8370    0.6024 C   0  0  0  0  0  0  0  0  0  0  0  0
    3.4961    0.4710   -0.8145 C   0  0  0  0  0  0  0  0  0  0  0  0
    4.8621   -0.0073   -0.7903 N   0  0  0  0  0  0  0  0  0  0  0  0
    5.4636   -0.3429   -2.0011 C   0  0  0  0  0  0  0  0  0  0  0  0
    6.8239   -0.3812   -1.9915 N   0  0  0  0  0  0  0  0  0  0  0  0
    7.4799   -0.7363   -3.1178 C   0  0  0  0  0  0  0  0  0  0  0  0
    6.9628   -1.0537   -4.3197 N   0  0  0  0  0  0  0  0  0  0  0  0
    5.6256   -0.9805   -4.2884 C   0  0  0  0  0  0  0  0  0  0  0  0
    4.7750   -1.2231   -5.3271 N   0  0  0  0  0  0  0  0  0  0  0  0
    3.5014   -1.0202   -4.8731 C   0  0  0  0  0  0  0  0  0  0  0  0
    3.4834   -0.6725   -3.6041 N   0  0  0  0  0  0  0  0  0  0  0  0
    4.8130   -0.6470   -3.2171 C   0  0  0  0  0  0  0  0  0  0  0  0
    2.3804    2.1646    2.5523 C   0  0  0  0  0  0  0  0  0  0  0  0
    3.1855    3.2208    3.0533 O   0  0  0  0  0  0  0  0  0  0  0  0
    2.3705    3.0075   -0.8372 H   0  0  0  0  0  0  0  0  0  0  0  0
    2.9033    4.0436    0.4871 H   0  0  0  0  0  0  0  0  0  0  0  0
    1.2281    3.4586    0.4182 H   0  0  0  0  0  0  0  0  0  0  0  0
    3.3472    0.0305    1.3105 H   0  0  0  0  0  0  0  0  0  0  0  0
    3.3963    1.3162   -1.4998 H   0  0  0  0  0  0  0  0  0  0  0  0
    2.8124   -0.3256   -1.1280 H   0  0  0  0  0  0  0  0  0  0  0  0
    5.5209    0.5425   -0.2496 H   0  0  0  0  0  0  0  0  0  0  0  0
    8.5630   -0.7695   -3.0414 H   0  0  0  0  0  0  0  0  0  0  0  0
    5.0548   -1.4957   -6.2568 H   0  0  0  0  0  0  0  0  0  0  0  0
    2.6342   -1.1399   -5.5097 H   0  0  0  0  0  0  0  0  0  0  0  0
    2.6109    1.2613    3.1269 H   0  0  0  0  0  0  0  0  0  0  0  0
    1.3288    2.4113    2.7291 H   0  0  0  0  0  0  0  0  0  0  0  0
    4.0967    3.0316    2.7713 H   0  0  0  0  0  0  0  0  0  0  0  0
  1  2  1  0  0  0  0
  1 17  1  0  0  0  0
  1 18  1  0  0  0  0
  1 19  1  0  0  0  0
  2  3  2  0  0  0  0
  2 15  1  0  0  0  0
  3  4  1  0  0  0  0
  3 20  1  0  0  0  0
  4  5  1  0  0  0  0
  4 21  1  0  0  0  0
  4 22  1  0  0  0  0
  5  6  1  0  0  0  0
  5 23  1  0  0  0  0
  6  7  1  0  0  0  0
  6 14  2  0  0  0  0
  7  8  2  0  0  0  0
  8  9  1  0  0  0  0
  8 24  1  0  0  0  0
  9 10  2  0  0  0  0
 10 11  1  0  0  0  0
 10 14  1  0  0  0  0
 11 12  1  0  0  0  0
 11 25  1  0  0  0  0
 12 13  2  0  0  0  0
 12 26  1  0  0  0  0
 13 14  1  0  0  0  0
 15 16  1  0  0  0  0
 15 27  1  0  0  0  0
 15 28  1  0  0  0  0
 16 29  1  0  0  0  0
M  END
$$$$
