CHEBI:943
 OpenBabel04242410353D

 13 13  0  0  0  0  0  0  0  0999 V2000
    1.1817    0.0183   -0.3083 N   0  0  0  0  0  0  0  0  0  0  0  0
    2.3356   -0.0009   -0.1830 C   0  0  0  0  0  0  0  0  0  0  0  0
    3.7603   -0.0246   -0.0278 C   0  0  0  0  0  0  0  0  0  0  0  0
    4.4870    1.1687    0.0894 C   0  0  0  0  0  0  0  0  0  0  0  0
    3.7217    2.7200    0.0529 Cl  0  0  0  0  0  0  0  0  0  0  0  0
    5.8784    1.1442    0.2420 C   0  0  0  0  0  0  0  0  0  0  0  0
    6.5580   -0.0713    0.2792 C   0  0  0  0  0  0  0  0  0  0  0  0
    5.8469   -1.2636    0.1633 C   0  0  0  0  0  0  0  0  0  0  0  0
    4.4554   -1.2417    0.0105 C   0  0  0  0  0  0  0  0  0  0  0  0
    3.6498   -2.7667   -0.1265 Cl  0  0  0  0  0  0  0  0  0  0  0  0
    6.4385    2.0731    0.3328 H   0  0  0  0  0  0  0  0  0  0  0  0
    7.6394   -0.0894    0.3981 H   0  0  0  0  0  0  0  0  0  0  0  0
    6.3824   -2.2108    0.1927 H   0  0  0  0  0  0  0  0  0  0  0  0
  1  2  3  0  0  0  0
  2  3  1  0  0  0  0
  3  4  1  0  0  0  0
  3  9  2  0  0  0  0
  4  5  1  0  0  0  0
  4  6  2  0  0  0  0
  6  7  1  0  0  0  0
  6 11  1  0  0  0  0
  7  8  2  0  0  0  0
  7 12  1  0  0  0  0
  8  9  1  0  0  0  0
  8 13  1  0  0  0  0
  9 10  1  0  0  0  0
M  END
$$$$
