CHEBI:16233
 OpenBabel04242414023D

 43 47  0  0  1  0  0  0  0  0999 V2000
    2.3640   -0.8569   -0.5007 C   0  0  0  0  0  0  0  0  0  0  0  0
    2.0071    0.2591    0.3033 O   0  0  0  0  0  0  0  0  0  0  0  0
    2.9372    1.2541    0.4376 C   0  0  0  0  0  0  0  0  0  0  0  0
    2.7264    2.0662    1.5557 C   0  0  0  0  0  0  0  0  0  0  0  0
    3.5797    3.1409    1.8516 C   0  0  0  0  0  0  0  0  0  0  0  0
    4.6944    3.4014    1.0365 C   0  0  0  0  0  0  0  0  0  0  0  0
    4.8707    2.6147   -0.1162 C   0  0  0  0  0  0  0  0  0  0  0  0
    4.0038    1.5533   -0.4116 C   0  0  0  0  0  0  0  0  0  0  0  0
    4.2158    0.8401   -1.5598 O   0  0  0  0  0  0  0  0  0  0  0  0
    5.6361    4.5697    1.3442 C   0  0  2  0  0  0  0  0  0  0  0  0
    7.1270    4.1492    1.2460 C   0  0  0  0  0  0  0  0  0  0  0  0
    8.0788    5.2522    1.6519 C   0  0  0  0  0  0  0  0  0  0  0  0
    9.4452    5.1732    1.3023 C   0  0  0  0  0  0  0  0  0  0  0  0
   10.3375    6.1789    1.6801 C   0  0  0  0  0  0  0  0  0  0  0  0
    9.8388    7.2388    2.4052 C   0  0  0  0  0  0  0  0  0  0  0  0
    8.5118    7.3172    2.7628 C   0  0  0  0  0  0  0  0  0  0  0  0
    7.6012    6.3324    2.4187 C   0  0  0  0  0  0  0  0  0  0  0  0
    6.1478    6.4446    2.7948 C   0  0  0  0  0  0  0  0  0  0  0  0
    5.4276    5.1631    2.6884 N   0  0  0  0  0  0  0  0  0  0  0  0
    4.0037    5.3462    2.9787 C   0  0  0  0  0  0  0  0  0  0  0  0
    3.3155    3.9834    3.0718 C   0  0  0  0  0  0  0  0  0  0  0  0
    8.2378    8.4516    3.4657 O   0  0  0  0  0  0  0  0  0  0  0  0
    9.5427    9.0627    3.5229 C   0  0  0  0  0  0  0  0  0  0  0  0
   10.5619    8.3047    2.8424 O   0  0  0  0  0  0  0  0  0  0  0  0
    1.6611   -1.6646   -0.2727 H   0  0  0  0  0  0  0  0  0  0  0  0
    3.3685   -1.2265   -0.2677 H   0  0  0  0  0  0  0  0  0  0  0  0
    2.2525   -0.6222   -1.5633 H   0  0  0  0  0  0  0  0  0  0  0  0
    1.8813    1.8517    2.2073 H   0  0  0  0  0  0  0  0  0  0  0  0
    5.6863    2.8391   -0.7969 H   0  0  0  0  0  0  0  0  0  0  0  0
    4.9526    1.2364   -2.0513 H   0  0  0  0  0  0  0  0  0  0  0  0
    5.4241    5.3344    0.5811 H   0  0  0  0  0  0  0  0  0  0  0  0
    7.3658    3.8603    0.2158 H   0  0  0  0  0  0  0  0  0  0  0  0
    7.3179    3.2783    1.8875 H   0  0  0  0  0  0  0  0  0  0  0  0
    9.8135    4.3227    0.7324 H   0  0  0  0  0  0  0  0  0  0  0  0
   11.3868    6.1299    1.4128 H   0  0  0  0  0  0  0  0  0  0  0  0
    5.6843    7.2062    2.1538 H   0  0  0  0  0  0  0  0  0  0  0  0
    6.0840    6.7902    3.8341 H   0  0  0  0  0  0  0  0  0  0  0  0
    3.5225    5.9673    2.2109 H   0  0  0  0  0  0  0  0  0  0  0  0
    3.8721    5.8578    3.9401 H   0  0  0  0  0  0  0  0  0  0  0  0
    2.2370    4.1418    3.1909 H   0  0  0  0  0  0  0  0  0  0  0  0
    3.6750    3.4402    3.9547 H   0  0  0  0  0  0  0  0  0  0  0  0
    9.8315    9.1753    4.5743 H   0  0  0  0  0  0  0  0  0  0  0  0
    9.4830   10.0577    3.0670 H   0  0  0  0  0  0  0  0  0  0  0  0
  1  2  1  0  0  0  0
  1 25  1  0  0  0  0
  1 26  1  0  0  0  0
  1 27  1  0  0  0  0
  2  3  1  0  0  0  0
  3  4  1  0  0  0  0
  3  8  2  0  0  0  0
  4  5  2  0  0  0  0
  4 28  1  0  0  0  0
  5  6  1  0  0  0  0
  5 21  1  0  0  0  0
  6  7  2  0  0  0  0
  6 10  1  0  0  0  0
  7  8  1  0  0  0  0
  7 29  1  0  0  0  0
  8  9  1  0  0  0  0
  9 30  1  0  0  0  0
 10 11  1  0  0  0  0
 10 19  1  0  0  0  0
 10 31  1  6  0  0  0
 11 12  1  0  0  0  0
 11 32  1  0  0  0  0
 11 33  1  0  0  0  0
 12 13  1  0  0  0  0
 12 17  2  0  0  0  0
 13 14  2  0  0  0  0
 13 34  1  0  0  0  0
 14 15  1  0  0  0  0
 14 35  1  0  0  0  0
 15 16  2  0  0  0  0
 15 24  1  0  0  0  0
 16 17  1  0  0  0  0
 16 22  1  0  0  0  0
 17 18  1  0  0  0  0
 18 19  1  0  0  0  0
 18 36  1  0  0  0  0
 18 37  1  0  0  0  0
 19 20  1  0  0  0  0
 20 21  1  0  0  0  0
 20 38  1  0  0  0  0
 20 39  1  0  0  0  0
 21 40  1  0  0  0  0
 21 41  1  0  0  0  0
 22 23  1  0  0  0  0
 23 24  1  0  0  0  0
 23 42  1  0  0  0  0
 23 43  1  0  0  0  0
M  END
$$$$
