CHEBI:16269
 OpenBabel04242414053D

 20 20  0  0  0  0  0  0  0  0999 V2000
    1.6018    0.8007   -0.1340 C   0  0  0  0  0  0  0  0  0  0  0  0
    2.5292   -0.2946    0.1456 N   0  0  0  0  0  0  0  0  0  0  0  0
    3.1132   -0.2999    1.4848 C   0  0  0  0  0  0  0  0  0  0  0  0
    3.2563   -0.8412   -0.9203 C   0  0  0  0  0  0  0  0  0  0  0  0
    4.4386   -1.5790   -0.7254 C   0  0  0  0  0  0  0  0  0  0  0  0
    5.1570   -2.1393   -1.7912 C   0  0  0  0  0  0  0  0  0  0  0  0
    4.7043   -1.9879   -3.0945 C   0  0  0  0  0  0  0  0  0  0  0  0
    3.5319   -1.2823   -3.3262 C   0  0  0  0  0  0  0  0  0  0  0  0
    2.8214   -0.7250   -2.2539 C   0  0  0  0  0  0  0  0  0  0  0  0
    1.1462    1.1817    0.7870 H   0  0  0  0  0  0  0  0  0  0  0  0
    0.7703    0.4662   -0.7633 H   0  0  0  0  0  0  0  0  0  0  0  0
    2.1157    1.6393   -0.6171 H   0  0  0  0  0  0  0  0  0  0  0  0
    2.4145    0.1127    2.2216 H   0  0  0  0  0  0  0  0  0  0  0  0
    4.0267    0.3038    1.5189 H   0  0  0  0  0  0  0  0  0  0  0  0
    3.3317   -1.3198    1.8194 H   0  0  0  0  0  0  0  0  0  0  0  0
    4.8412   -1.7383    0.2698 H   0  0  0  0  0  0  0  0  0  0  0  0
    6.0685   -2.6966   -1.5927 H   0  0  0  0  0  0  0  0  0  0  0  0
    5.2565   -2.4231   -3.9222 H   0  0  0  0  0  0  0  0  0  0  0  0
    3.1574   -1.1656   -4.3396 H   0  0  0  0  0  0  0  0  0  0  0  0
    1.9019   -0.2018   -2.4965 H   0  0  0  0  0  0  0  0  0  0  0  0
  1  2  1  0  0  0  0
  1 10  1  0  0  0  0
  1 11  1  0  0  0  0
  1 12  1  0  0  0  0
  2  3  1  0  0  0  0
  2  4  1  0  0  0  0
  3 13  1  0  0  0  0
  3 14  1  0  0  0  0
  3 15  1  0  0  0  0
  4  5  1  0  0  0  0
  4  9  2  0  0  0  0
  5  6  2  0  0  0  0
  5 16  1  0  0  0  0
  6  7  1  0  0  0  0
  6 17  1  0  0  0  0
  7  8  2  0  0  0  0
  7 18  1  0  0  0  0
  8  9  1  0  0  0  0
  8 19  1  0  0  0  0
  9 20  1  0  0  0  0
M  END
$$$$
