CHEBI:17716
 OpenBabel04242417103D

 45 46  0  0  1  0  0  0  0  0999 V2000
    2.9492    2.7758    5.7555 O   0  0  0  0  0  0  0  0  0  0  0  0
    1.5563    2.7600    6.0760 C   0  0  0  0  0  0  0  0  0  0  0  0
    0.7399    2.0924    4.9585 C   0  0  1  0  0  0  0  0  0  0  0  0
    0.7537    2.9682    3.8191 O   0  0  0  0  0  0  0  0  0  0  0  0
   -0.0722    2.5111    2.7502 C   0  0  1  0  0  0  0  0  0  0  0  0
    0.0425    3.4050    1.6324 O   0  0  0  0  0  0  0  0  0  0  0  0
   -0.3608    4.7636    1.9011 C   0  0  1  0  0  0  0  0  0  0  0  0
    0.3314    5.6257    0.8322 C   0  0  2  0  0  0  0  0  0  0  0  0
    0.6277    6.9247    1.3704 O   0  0  0  0  0  0  0  0  0  0  0  0
   -0.5160    5.8015   -0.4365 C   0  0  1  0  0  0  0  0  0  0  0  0
    0.3543    5.8591   -1.5774 O   0  0  0  0  0  0  0  0  0  0  0  0
   -1.5683    4.6948   -0.5853 C   0  0  0  0  0  0  0  0  0  0  0  0
   -0.9554    3.4494   -0.8922 O   0  0  0  0  0  0  0  0  0  0  0  0
   -2.4464    4.5687    0.5244 O   0  0  0  0  0  0  0  0  0  0  0  0
   -1.8932    4.8827    1.8201 C   0  0  2  0  0  0  0  0  0  0  0  0
   -2.4079    6.2642    2.2523 C   0  0  0  0  0  0  0  0  0  0  0  0
   -3.8351    6.2344    2.3308 O   0  0  0  0  0  0  0  0  0  0  0  0
    0.3542    1.1122    2.2605 C   0  0  2  0  0  0  0  0  0  0  0  0
   -0.5870    0.6022    1.3007 O   0  0  0  0  0  0  0  0  0  0  0  0
    0.4379    0.1331    3.4346 C   0  0  1  0  0  0  0  0  0  0  0  0
    1.0104   -1.0992    2.9665 O   0  0  0  0  0  0  0  0  0  0  0  0
    1.2874    0.7071    4.5681 C   0  0  1  0  0  0  0  0  0  0  0  0
    2.6408    0.7559    4.0845 O   0  0  0  0  0  0  0  0  0  0  0  0
    3.3582    3.4636    6.3120 H   0  0  0  0  0  0  0  0  0  0  0  0
    1.2292    3.7963    6.2129 H   0  0  0  0  0  0  0  0  0  0  0  0
    1.4361    2.2162    7.0179 H   0  0  0  0  0  0  0  0  0  0  0  0
   -0.2977    2.0047    5.3058 H   0  0  0  0  0  0  0  0  0  0  0  0
   -1.1184    2.4829    3.0749 H   0  0  0  0  0  0  0  0  0  0  0  0
   -0.0091    5.0664    2.8945 H   0  0  0  0  0  0  0  0  0  0  0  0
    1.3008    5.1784    0.5775 H   0  0  0  0  0  0  0  0  0  0  0  0
    1.1315    7.3929    0.6759 H   0  0  0  0  0  0  0  0  0  0  0  0
   -1.0270    6.7700   -0.3987 H   0  0  0  0  0  0  0  0  0  0  0  0
    0.4597    4.9330   -1.8800 H   0  0  0  0  0  0  0  0  0  0  0  0
   -2.1893    4.9263   -1.4570 H   0  0  0  0  0  0  0  0  0  0  0  0
   -0.6183    3.0878   -0.0473 H   0  0  0  0  0  0  0  0  0  0  0  0
   -2.3537    4.1482    2.4890 H   0  0  0  0  0  0  0  0  0  0  0  0
   -2.1485    7.0498    1.5394 H   0  0  0  0  0  0  0  0  0  0  0  0
   -2.0228    6.5402    3.2384 H   0  0  0  0  0  0  0  0  0  0  0  0
   -4.1418    5.7792    1.5223 H   0  0  0  0  0  0  0  0  0  0  0  0
    1.3187    1.1738    1.7413 H   0  0  0  0  0  0  0  0  0  0  0  0
   -0.3166   -0.3241    1.1412 H   0  0  0  0  0  0  0  0  0  0  0  0
   -0.5705   -0.1051    3.7930 H   0  0  0  0  0  0  0  0  0  0  0  0
    1.9805   -0.9517    2.9974 H   0  0  0  0  0  0  0  0  0  0  0  0
    1.2849    0.0277    5.4273 H   0  0  0  0  0  0  0  0  0  0  0  0
    3.0812    1.4930    4.5682 H   0  0  0  0  0  0  0  0  0  0  0  0
  1  2  1  0  0  0  0
  1 24  1  0  0  0  0
  2 25  1  0  0  0  0
  2 26  1  0  0  0  0
  3  4  1  0  0  0  0
  3 22  1  0  0  0  0
  3  2  1  0  0  0  0
  3 27  1  1  0  0  0
  4  5  1  0  0  0  0
  5 18  1  0  0  0  0
  5  6  1  0  0  0  0
  5 28  1  1  0  0  0
  7  8  1  0  0  0  0
  7 15  1  0  0  0  0
  7  6  1  0  0  0  0
  7 29  1  1  0  0  0
  8 10  1  0  0  0  0
  8  9  1  0  0  0  0
  8 30  1  6  0  0  0
  9 31  1  0  0  0  0
 10 11  1  0  0  0  0
 10 12  1  0  0  0  0
 10 32  1  1  0  0  0
 11 33  1  0  0  0  0
 12 13  1  0  0  0  0
 12 14  1  0  0  0  0
 12 34  1  0  0  0  0
 13 35  1  0  0  0  0
 14 15  1  0  0  0  0
 15 16  1  0  0  0  0
 15 36  1  1  0  0  0
 16 17  1  0  0  0  0
 16 37  1  0  0  0  0
 16 38  1  0  0  0  0
 17 39  1  0  0  0  0
 18 19  1  0  0  0  0
 18 20  1  0  0  0  0
 18 40  1  6  0  0  0
 19 41  1  0  0  0  0
 20 21  1  0  0  0  0
 20 22  1  0  0  0  0
 20 42  1  1  0  0  0
 21 43  1  0  0  0  0
 22 23  1  0  0  0  0
 22 44  1  1  0  0  0
 23 45  1  0  0  0  0
M  END
$$$$
