CHEBI:16300
 OpenBabel04242414093D

 25 25  0  0  1  0  0  0  0  0999 V2000
   10.4732    0.8879    1.2987 O   0  0  0  0  0  0  0  0  0  0  0  0
   10.2322    1.5825    0.0044 P   0  0  0  0  0  0  0  0  0  0  0  0
   11.1521    2.8656   -0.2245 O   0  0  0  0  0  0  0  0  0  0  0  0
   10.5818    0.7121   -1.2855 O   0  0  0  0  0  0  0  0  0  0  0  0
    8.7533    2.1256   -0.2825 O   0  0  0  0  0  0  0  0  0  0  0  0
    7.7086    1.4182    0.3566 C   0  0  1  0  0  0  0  0  0  0  0  0
    6.5612    2.2849    0.4509 O   0  0  0  0  0  0  0  0  0  0  0  0
    5.5999    1.9124   -0.5674 C   0  0  2  0  0  0  0  0  0  0  0  0
    4.3436    1.4230    0.1562 C   0  0  0  0  0  0  0  0  0  0  0  0
    3.7795    2.4893    0.9169 O   0  0  0  0  0  0  0  0  0  0  0  0
    6.2509    0.8309   -1.4185 C   0  0  1  0  0  0  0  0  0  0  0  0
    6.9684    1.3860   -2.5330 O   0  0  0  0  0  0  0  0  0  0  0  0
    7.2599    0.2046   -0.4683 C   0  0  1  0  0  0  0  0  0  0  0  0
    8.3106   -0.4573   -1.1810 O   0  0  0  0  0  0  0  0  0  0  0  0
   12.0753    2.6775    0.0200 H   0  0  0  0  0  0  0  0  0  0  0  0
   10.0536   -0.1167   -1.2631 H   0  0  0  0  0  0  0  0  0  0  0  0
    7.9976    1.1375    1.3736 H   0  0  0  0  0  0  0  0  0  0  0  0
    5.3769    2.8170   -1.1435 H   0  0  0  0  0  0  0  0  0  0  0  0
    4.5726    0.6129    0.8559 H   0  0  0  0  0  0  0  0  0  0  0  0
    3.5874    1.0755   -0.5536 H   0  0  0  0  0  0  0  0  0  0  0  0
    4.5242    2.9259    1.3751 H   0  0  0  0  0  0  0  0  0  0  0  0
    5.5454    0.1040   -1.8306 H   0  0  0  0  0  0  0  0  0  0  0  0
    7.4896    2.1509   -2.2085 H   0  0  0  0  0  0  0  0  0  0  0  0
    6.7574   -0.5189    0.1835 H   0  0  0  0  0  0  0  0  0  0  0  0
    8.1403   -0.2393   -2.1277 H   0  0  0  0  0  0  0  0  0  0  0  0
  1  2  2  0  0  0  0
  2  3  1  0  0  0  0
  2  4  1  0  0  0  0
  2  5  1  0  0  0  0
  3 15  1  0  0  0  0
  4 16  1  0  0  0  0
  6  7  1  0  0  0  0
  6 13  1  0  0  0  0
  6  5  1  0  0  0  0
  6 17  1  1  0  0  0
  7  8  1  0  0  0  0
  8  9  1  0  0  0  0
  8 11  1  0  0  0  0
  8 18  1  6  0  0  0
  9 10  1  0  0  0  0
  9 19  1  0  0  0  0
  9 20  1  0  0  0  0
 10 21  1  0  0  0  0
 11 12  1  0  0  0  0
 11 13  1  0  0  0  0
 11 22  1  6  0  0  0
 12 23  1  0  0  0  0
 13 14  1  0  0  0  0
 13 24  1  1  0  0  0
 14 25  1  0  0  0  0
M  END
$$$$
