CHEBI:15538
 OpenBabel04242412423D

143145  0  0  1  0  0  0  0  0999 V2000
   45.6211   10.2997    7.2595 C   0  0  0  0  0  0  0  0  0  0  0  0
   46.7816    9.4118    7.7065 C   0  0  0  0  0  0  0  0  0  0  0  0
   46.6619    9.1050    9.1961 C   0  0  0  0  0  0  0  0  0  0  0  0
   46.8736    8.1416    6.8413 C   0  0  0  0  0  0  0  0  0  0  0  0
   48.1939    7.3648    6.9372 C   0  0  0  0  0  0  0  0  0  0  0  0
   49.4891    8.1601    6.7288 C   0  0  0  0  0  0  0  0  0  0  0  0
   49.9524    8.6218    5.3245 C   0  0  0  0  0  0  0  0  0  0  0  0
   50.1227    7.3868    4.4236 C   0  0  0  0  0  0  0  0  0  0  0  0
   49.1286    9.6791    4.5585 C   0  0  0  0  0  0  0  0  0  0  0  0
   49.0115   11.1316    5.0539 C   0  0  0  0  0  0  0  0  0  0  0  0
   50.2135   12.0914    4.9199 C   0  0  0  0  0  0  0  0  0  0  0  0
   51.4516   11.9924    5.8439 C   0  0  0  0  0  0  0  0  0  0  0  0
   52.5424   12.9475    5.3265 C   0  0  0  0  0  0  0  0  0  0  0  0
   51.2124   12.3270    7.3434 C   0  0  0  0  0  0  0  0  0  0  0  0
   50.4324   11.2262    8.0212 C   0  0  0  0  0  0  0  0  0  0  0  0
   50.3587   11.1634    9.5305 C   0  0  0  0  0  0  0  0  0  0  0  0
   49.6997   12.3188   10.2872 C   0  0  0  0  0  0  0  0  0  0  0  0
   48.3472   12.7686    9.7342 C   0  0  0  0  0  0  0  0  0  0  0  0
   49.6033   12.0013   11.7990 C   0  0  0  0  0  0  0  0  0  0  0  0
   48.7172   10.8189   12.1857 C   0  0  0  0  0  0  0  0  0  0  0  0
   48.6153    9.7871   11.5453 O   0  0  0  0  0  0  0  0  0  0  0  0
   47.8815   10.9722   13.7223 S   0  0  0  0  0  0  0  0  0  0  0  0
   49.2895   10.6950   14.8397 C   0  0  0  0  0  0  0  0  0  0  0  0
   49.7798    9.2453   14.9257 C   0  0  0  0  0  0  0  0  0  0  0  0
   50.5142    8.7706   13.7586 N   0  0  0  0  0  0  0  0  0  0  0  0
   50.2430    7.5288   13.2116 C   0  0  0  0  0  0  0  0  0  0  0  0
   49.3003    6.8263   13.5655 O   0  0  0  0  0  0  0  0  0  0  0  0
   51.2119    7.0695   12.1374 C   0  0  0  0  0  0  0  0  0  0  0  0
   50.9257    7.7561   10.8147 C   0  0  0  0  0  0  0  0  0  0  0  0
   51.7058    7.2322    9.6973 N   0  0  0  0  0  0  0  0  0  0  0  0
   52.9213    7.5496    9.1695 C   0  0  0  0  0  0  0  0  0  0  0  0
   53.2481    6.9465    8.1419 O   0  0  0  0  0  0  0  0  0  0  0  0
   53.9003    8.5579    9.8467 C   0  0  2  0  0  0  0  0  0  0  0  0
   53.3789    9.2528   10.9732 O   0  0  0  0  0  0  0  0  0  0  0  0
   54.6474    9.5309    8.8348 C   0  0  0  0  0  0  0  0  0  0  0  0
   56.0568    8.9713    8.5388 C   0  0  0  0  0  0  0  0  0  0  0  0
   53.9345    9.6838    7.4745 C   0  0  0  0  0  0  0  0  0  0  0  0
   54.8070   10.9617    9.3937 C   0  0  0  0  0  0  0  0  0  0  0  0
   55.5893   10.9838   10.5761 O   0  0  0  0  0  0  0  0  0  0  0  0
   55.7046   12.4230   11.2824 P   0  0  0  0  0  0  0  0  0  0  0  0
   54.3907   12.9642   11.7388 O   0  0  0  0  0  0  0  0  0  0  0  0
   56.7456   12.1010   12.4515 O   0  0  0  0  0  0  0  0  0  0  0  0
   56.5194   13.2728   10.2317 O   0  0  0  0  0  0  0  0  0  0  0  0
   56.8807   14.8093   10.2501 P   0  0  0  0  0  0  0  0  0  0  0  0
   58.3073   15.1298   10.5538 O   0  0  0  0  0  0  0  0  0  0  0  0
   56.5143   15.2582    8.7563 O   0  0  0  0  0  0  0  0  0  0  0  0
   55.8057   15.6060   11.1389 O   0  0  0  0  0  0  0  0  0  0  0  0
   56.0746   15.6058   12.5276 C   0  0  0  0  0  0  0  0  0  0  0  0
   54.9187   16.1690   13.3655 C   0  0  1  0  0  0  0  0  0  0  0  0
   54.9892   15.5545   14.6793 O   0  0  0  0  0  0  0  0  0  0  0  0
   55.8428   16.3720   15.5139 C   0  0  1  0  0  0  0  0  0  0  0  0
   57.0307   15.5991   15.8363 N   0  0  0  0  0  0  0  0  0  0  0  0
   57.2649   14.2799   15.5413 C   0  0  0  0  0  0  0  0  0  0  0  0
   58.4772   13.9040   15.8864 N   0  0  0  0  0  0  0  0  0  0  0  0
   59.0300   15.0146   16.4840 C   0  0  0  0  0  0  0  0  0  0  0  0
   60.2839   15.2411   17.0704 C   0  0  0  0  0  0  0  0  0  0  0  0
   61.2844   14.2792   17.1040 N   0  0  0  0  0  0  0  0  0  0  0  0
   60.5159   16.4441   17.6418 N   0  0  0  0  0  0  0  0  0  0  0  0
   59.5467   17.3845   17.5783 C   0  0  0  0  0  0  0  0  0  0  0  0
   58.3239   17.3032   17.0004 N   0  0  0  0  0  0  0  0  0  0  0  0
   58.1357   16.0738   16.4880 C   0  0  0  0  0  0  0  0  0  0  0  0
   56.1453   17.6647   14.7218 C   0  0  2  0  0  0  0  0  0  0  0  0
   56.1599   18.8538   15.5210 O   0  0  0  0  0  0  0  0  0  0  0  0
   55.0334   17.6597   13.6718 C   0  0  2  0  0  0  0  0  0  0  0  0
   53.8151   18.0700   14.2906 O   0  0  0  0  0  0  0  0  0  0  0  0
   53.3578   19.5976   14.2253 P   0  0  0  0  0  0  0  0  0  0  0  0
   52.3050   19.9068   13.2192 O   0  0  0  0  0  0  0  0  0  0  0  0
   52.8681   19.8975   15.7154 O   0  0  0  0  0  0  0  0  0  0  0  0
   54.6861   20.4709   14.1371 O   0  0  0  0  0  0  0  0  0  0  0  0
   44.6545    9.8566    7.5165 H   0  0  0  0  0  0  0  0  0  0  0  0
   45.6492   10.4655    6.1775 H   0  0  0  0  0  0  0  0  0  0  0  0
   45.6867   11.2812    7.7427 H   0  0  0  0  0  0  0  0  0  0  0  0
   47.6824   10.0034    7.5695 H   0  0  0  0  0  0  0  0  0  0  0  0
   47.4608    8.4409    9.5370 H   0  0  0  0  0  0  0  0  0  0  0  0
   45.7009    8.6417    9.4383 H   0  0  0  0  0  0  0  0  0  0  0  0
   46.7303   10.0308    9.7742 H   0  0  0  0  0  0  0  0  0  0  0  0
   46.6984    8.3926    5.7918 H   0  0  0  0  0  0  0  0  0  0  0  0
   46.0590    7.4625    7.1257 H   0  0  0  0  0  0  0  0  0  0  0  0
   48.1606    6.5070    6.2578 H   0  0  0  0  0  0  0  0  0  0  0  0
   48.2478    6.9284    7.9448 H   0  0  0  0  0  0  0  0  0  0  0  0
   49.4655    8.9943    7.4153 H   0  0  0  0  0  0  0  0  0  0  0  0
   50.2973    7.5190    7.1106 H   0  0  0  0  0  0  0  0  0  0  0  0
   50.9580    9.0371    5.4551 H   0  0  0  0  0  0  0  0  0  0  0  0
   50.5496    7.6652    3.4542 H   0  0  0  0  0  0  0  0  0  0  0  0
   49.1647    6.8922    4.2350 H   0  0  0  0  0  0  0  0  0  0  0  0
   50.8012    6.6600    4.8830 H   0  0  0  0  0  0  0  0  0  0  0  0
   48.1099    9.2935    4.4413 H   0  0  0  0  0  0  0  0  0  0  0  0
   49.5229    9.7393    3.5350 H   0  0  0  0  0  0  0  0  0  0  0  0
   48.5422   11.1839    6.0278 H   0  0  0  0  0  0  0  0  0  0  0  0
   48.2455   11.5768    4.3990 H   0  0  0  0  0  0  0  0  0  0  0  0
   49.8176   13.1117    5.0251 H   0  0  0  0  0  0  0  0  0  0  0  0
   50.5576   12.0202    3.8792 H   0  0  0  0  0  0  0  0  0  0  0  0
   51.8616   10.9822    5.7549 H   0  0  0  0  0  0  0  0  0  0  0  0
   52.7027   12.8285    4.2501 H   0  0  0  0  0  0  0  0  0  0  0  0
   53.4976   12.7442    5.8238 H   0  0  0  0  0  0  0  0  0  0  0  0
   52.2796   13.9932    5.5198 H   0  0  0  0  0  0  0  0  0  0  0  0
   50.6957   13.2870    7.4484 H   0  0  0  0  0  0  0  0  0  0  0  0
   52.1813   12.4271    7.8490 H   0  0  0  0  0  0  0  0  0  0  0  0
   50.8845   10.2859    7.7081 H   0  0  0  0  0  0  0  0  0  0  0  0
   49.4132   11.2375    7.6662 H   0  0  0  0  0  0  0  0  0  0  0  0
   51.3658   11.0248    9.9227 H   0  0  0  0  0  0  0  0  0  0  0  0
   49.8130   10.2386    9.7252 H   0  0  0  0  0  0  0  0  0  0  0  0
   50.3798   13.1748   10.1853 H   0  0  0  0  0  0  0  0  0  0  0  0
   48.1059   13.7649   10.1210 H   0  0  0  0  0  0  0  0  0  0  0  0
   47.5356   12.0997   10.0280 H   0  0  0  0  0  0  0  0  0  0  0  0
   48.3446   12.8467    8.6441 H   0  0  0  0  0  0  0  0  0  0  0  0
   49.2487   12.9004   12.3152 H   0  0  0  0  0  0  0  0  0  0  0  0
   50.6059   11.7786   12.1847 H   0  0  0  0  0  0  0  0  0  0  0  0
   48.9403   10.9976   15.8330 H   0  0  0  0  0  0  0  0  0  0  0  0
   50.1066   11.3699   14.5688 H   0  0  0  0  0  0  0  0  0  0  0  0
   48.9492    8.5736   15.1682 H   0  0  0  0  0  0  0  0  0  0  0  0
   50.4901    9.1788   15.7586 H   0  0  0  0  0  0  0  0  0  0  0  0
   51.4214    9.1772   13.5617 H   0  0  0  0  0  0  0  0  0  0  0  0
   51.1049    5.9830   12.0318 H   0  0  0  0  0  0  0  0  0  0  0  0
   52.2387    7.2507   12.4710 H   0  0  0  0  0  0  0  0  0  0  0  0
   51.0758    8.8290   10.8976 H   0  0  0  0  0  0  0  0  0  0  0  0
   49.8751    7.6060   10.5392 H   0  0  0  0  0  0  0  0  0  0  0  0
   51.2381    6.5266    9.1384 H   0  0  0  0  0  0  0  0  0  0  0  0
   54.6584    7.8979   10.2875 H   0  0  0  0  0  0  0  0  0  0  0  0
   52.7748    9.9300   10.6379 H   0  0  0  0  0  0  0  0  0  0  0  0
   56.6422    8.8501    9.4563 H   0  0  0  0  0  0  0  0  0  0  0  0
   56.0002    7.9958    8.0448 H   0  0  0  0  0  0  0  0  0  0  0  0
   56.6158    9.6460    7.8785 H   0  0  0  0  0  0  0  0  0  0  0  0
   54.1069    8.8311    6.8107 H   0  0  0  0  0  0  0  0  0  0  0  0
   52.8627    9.7962    7.6118 H   0  0  0  0  0  0  0  0  0  0  0  0
   54.2897   10.5669    6.9289 H   0  0  0  0  0  0  0  0  0  0  0  0
   53.8287   11.4152    9.5907 H   0  0  0  0  0  0  0  0  0  0  0  0
   55.3040   11.6037    8.6556 H   0  0  0  0  0  0  0  0  0  0  0  0
   57.3780   11.4004   12.2043 H   0  0  0  0  0  0  0  0  0  0  0  0
   57.3227   15.5034    8.2685 H   0  0  0  0  0  0  0  0  0  0  0  0
   57.0056   16.1550   12.6907 H   0  0  0  0  0  0  0  0  0  0  0  0
   56.2719   14.5811   12.8451 H   0  0  0  0  0  0  0  0  0  0  0  0
   53.9488   15.9125   12.9263 H   0  0  0  0  0  0  0  0  0  0  0  0
   55.3242   16.5699   16.4583 H   0  0  0  0  0  0  0  0  0  0  0  0
   56.5293   13.6430   15.0620 H   0  0  0  0  0  0  0  0  0  0  0  0
   60.9441   13.3355   16.9534 H   0  0  0  0  0  0  0  0  0  0  0  0
   61.9441   14.4281   17.8553 H   0  0  0  0  0  0  0  0  0  0  0  0
   59.7848   18.3310   18.0567 H   0  0  0  0  0  0  0  0  0  0  0  0
   57.1213   17.6145   14.2262 H   0  0  0  0  0  0  0  0  0  0  0  0
   56.8727   18.7172   16.1858 H   0  0  0  0  0  0  0  0  0  0  0  0
   55.2416   18.2732   12.7901 H   0  0  0  0  0  0  0  0  0  0  0  0
   51.8990   19.8095   15.7711 H   0  0  0  0  0  0  0  0  0  0  0  0
   55.2846   20.2284   14.8791 H   0  0  0  0  0  0  0  0  0  0  0  0
  1  2  1  0  0  0  0
  1 70  1  0  0  0  0
  1 71  1  0  0  0  0
  1 72  1  0  0  0  0
  2  3  1  0  0  0  0
  2  4  1  0  0  0  0
  2 73  1  0  0  0  0
  3 74  1  0  0  0  0
  3 75  1  0  0  0  0
  3 76  1  0  0  0  0
  4  5  1  0  0  0  0
  4 77  1  0  0  0  0
  4 78  1  0  0  0  0
  5  6  1  0  0  0  0
  5 79  1  0  0  0  0
  5 80  1  0  0  0  0
  6  7  1  0  0  0  0
  6 81  1  0  0  0  0
  6 82  1  0  0  0  0
  7  8  1  0  0  0  0
  7  9  1  0  0  0  0
  7 83  1  0  0  0  0
  8 84  1  0  0  0  0
  8 85  1  0  0  0  0
  8 86  1  0  0  0  0
  9 10  1  0  0  0  0
  9 87  1  0  0  0  0
  9 88  1  0  0  0  0
 10 11  1  0  0  0  0
 10 89  1  0  0  0  0
 10 90  1  0  0  0  0
 11 12  1  0  0  0  0
 11 91  1  0  0  0  0
 11 92  1  0  0  0  0
 12 13  1  0  0  0  0
 12 14  1  0  0  0  0
 12 93  1  0  0  0  0
 13 94  1  0  0  0  0
 13 95  1  0  0  0  0
 13 96  1  0  0  0  0
 14 15  1  0  0  0  0
 14 97  1  0  0  0  0
 14 98  1  0  0  0  0
 15 16  1  0  0  0  0
 15 99  1  0  0  0  0
 15100  1  0  0  0  0
 16 17  1  0  0  0  0
 16101  1  0  0  0  0
 16102  1  0  0  0  0
 17 18  1  0  0  0  0
 17 19  1  0  0  0  0
 17103  1  0  0  0  0
 18104  1  0  0  0  0
 18105  1  0  0  0  0
 18106  1  0  0  0  0
 19 20  1  0  0  0  0
 19107  1  0  0  0  0
 19108  1  0  0  0  0
 20 21  2  0  0  0  0
 20 22  1  0  0  0  0
 22 23  1  0  0  0  0
 23 24  1  0  0  0  0
 23109  1  0  0  0  0
 23110  1  0  0  0  0
 24 25  1  0  0  0  0
 24111  1  0  0  0  0
 24112  1  0  0  0  0
 25 26  1  0  0  0  0
 25113  1  0  0  0  0
 26 27  2  0  0  0  0
 26 28  1  0  0  0  0
 28 29  1  0  0  0  0
 28114  1  0  0  0  0
 28115  1  0  0  0  0
 29 30  1  0  0  0  0
 29116  1  0  0  0  0
 29117  1  0  0  0  0
 30 31  1  0  0  0  0
 30118  1  0  0  0  0
 31 32  2  0  0  0  0
 33 35  1  0  0  0  0
 33 34  1  0  0  0  0
 33 31  1  0  0  0  0
 33119  1  1  0  0  0
 34120  1  0  0  0  0
 35 36  1  0  0  0  0
 35 37  1  0  0  0  0
 35 38  1  0  0  0  0
 36121  1  0  0  0  0
 36122  1  0  0  0  0
 36123  1  0  0  0  0
 37124  1  0  0  0  0
 37125  1  0  0  0  0
 37126  1  0  0  0  0
 38 39  1  0  0  0  0
 38127  1  0  0  0  0
 38128  1  0  0  0  0
 39 40  1  0  0  0  0
 40 41  2  0  0  0  0
 40 42  1  0  0  0  0
 40 43  1  0  0  0  0
 42129  1  0  0  0  0
 43 44  1  0  0  0  0
 44 45  2  0  0  0  0
 44 46  1  0  0  0  0
 44 47  1  0  0  0  0
 46130  1  0  0  0  0
 47 48  1  0  0  0  0
 48131  1  0  0  0  0
 48132  1  0  0  0  0
 49 50  1  0  0  0  0
 49 64  1  0  0  0  0
 49 48  1  0  0  0  0
 49133  1  6  0  0  0
 50 51  1  0  0  0  0
 51 62  1  0  0  0  0
 51 52  1  0  0  0  0
 51134  1  1  0  0  0
 52 53  1  0  0  0  0
 52 61  1  0  0  0  0
 53 54  2  0  0  0  0
 53135  1  0  0  0  0
 54 55  1  0  0  0  0
 55 56  1  0  0  0  0
 55 61  2  0  0  0  0
 56 57  1  0  0  0  0
 56 58  2  0  0  0  0
 57136  1  0  0  0  0
 57137  1  0  0  0  0
 58 59  1  0  0  0  0
 59 60  2  0  0  0  0
 59138  1  0  0  0  0
 60 61  1  0  0  0  0
 62 63  1  0  0  0  0
 62 64  1  0  0  0  0
 62139  1  6  0  0  0
 63140  1  0  0  0  0
 64 65  1  0  0  0  0
 64141  1  6  0  0  0
 65 66  1  0  0  0  0
 66 67  2  0  0  0  0
 66 68  1  0  0  0  0
 66 69  1  0  0  0  0
 68142  1  0  0  0  0
 69143  1  0  0  0  0
M  END
$$$$
