CHEBI:27392
 OpenBabel04252409453D

103105  0  0  1  0  0  0  0  0999 V2000
   14.1671   12.4342   10.6656 C   0  0  0  0  0  0  0  0  0  0  0  0
   12.7320   12.0256   10.3756 C   0  0  0  0  0  0  0  0  0  0  0  0
   11.7678   13.1991   10.5297 C   0  0  0  0  0  0  0  0  0  0  0  0
   10.2899   12.7999   10.6590 C   0  0  0  0  0  0  0  0  0  0  0  0
    9.5901   12.3783    9.3605 C   0  0  0  0  0  0  0  0  0  0  0  0
    9.1924   10.8926    9.2778 C   0  0  0  0  0  0  0  0  0  0  0  0
   10.4011    9.9830    9.1118 C   0  0  0  0  0  0  0  0  0  0  0  0
   10.1557    8.7027    8.3215 C   0  0  0  0  0  0  0  0  0  0  0  0
    9.9063    7.4118    9.1124 C   0  0  0  0  0  0  0  0  0  0  0  0
   10.3458    6.2196    8.2437 C   0  0  0  0  0  0  0  0  0  0  0  0
   10.5054    4.8868    8.9593 C   0  0  0  0  0  0  0  0  0  0  0  0
   10.6754    3.7035    7.9793 C   0  0  0  0  0  0  0  0  0  0  0  0
   10.8441    2.5305    8.7808 O   0  0  0  0  0  0  0  0  0  0  0  0
   11.8535    3.8186    7.0003 C   0  0  0  0  0  0  0  0  0  0  0  0
   11.3742    4.3108    5.6472 C   0  0  0  0  0  0  0  0  0  0  0  0
   10.6890    3.6533    4.8848 O   0  0  0  0  0  0  0  0  0  0  0  0
   11.7205    5.6105    5.4709 O   0  0  0  0  0  0  0  0  0  0  0  0
   11.2331    6.3601    4.3033 C   0  0  1  0  0  0  0  0  0  0  0  0
   10.7284    7.6942    4.8904 C   0  0  2  0  0  0  0  0  0  0  0  0
    9.3023    7.6460    5.0595 O   0  0  0  0  0  0  0  0  0  0  0  0
   11.0497    8.9543    4.0877 C   0  0  1  0  0  0  0  0  0  0  0  0
   10.9337   10.2090    4.9708 C   0  0  0  0  0  0  0  0  0  0  0  0
   11.9816   10.2398    5.9428 O   0  0  0  0  0  0  0  0  0  0  0  0
   12.3840    8.9038    3.5810 O   0  0  0  0  0  0  0  0  0  0  0  0
   12.5171    7.8627    2.6310 C   0  0  0  0  0  0  0  0  0  0  0  0
   13.6997    7.9740    1.8595 O   0  0  0  0  0  0  0  0  0  0  0  0
   15.1314    8.3237    2.4750 P   0  0  0  0  0  0  0  0  0  0  0  0
   16.2692    8.2652    1.5058 O   0  0  0  0  0  0  0  0  0  0  0  0
   14.9779    9.7807    3.1279 O   0  0  0  0  0  0  0  0  0  0  0  0
   15.3320    7.4190    3.7506 O   0  0  0  0  0  0  0  0  0  0  0  0
   16.4193    6.2762    3.8999 P   0  0  0  0  0  0  0  0  0  0  0  0
   16.0976    4.9983    3.2050 O   0  0  0  0  0  0  0  0  0  0  0  0
   17.7759    6.9578    3.3926 O   0  0  0  0  0  0  0  0  0  0  0  0
   16.6245    6.1769    5.4939 O   0  0  0  0  0  0  0  0  0  0  0  0
   17.1050    7.3193    6.2011 C   0  0  0  0  0  0  0  0  0  0  0  0
   15.9860    8.3034    6.5431 C   0  0  1  0  0  0  0  0  0  0  0  0
   15.2310    7.8377    7.6646 O   0  0  0  0  0  0  0  0  0  0  0  0
   14.6363    8.9959    8.2637 C   0  0  1  0  0  0  0  0  0  0  0  0
   14.4982    8.7233    9.6927 N   0  0  0  0  0  0  0  0  0  0  0  0
   13.3661    8.0484   10.1071 C   0  0  0  0  0  0  0  0  0  0  0  0
   13.1204    7.7681   11.3867 C   0  0  0  0  0  0  0  0  0  0  0  0
   14.0987    8.2015   12.3895 C   0  0  0  0  0  0  0  0  0  0  0  0
   13.8464    8.1454   13.5861 O   0  0  0  0  0  0  0  0  0  0  0  0
   15.2836    8.6587   11.8895 N   0  0  0  0  0  0  0  0  0  0  0  0
   15.5488    8.9382   10.5711 C   0  0  0  0  0  0  0  0  0  0  0  0
   16.6449    9.3865   10.2438 O   0  0  0  0  0  0  0  0  0  0  0  0
   15.4314   10.2493    7.8127 C   0  0  2  0  0  0  0  0  0  0  0  0
   14.6405   11.1489    7.0024 O   0  0  0  0  0  0  0  0  0  0  0  0
   16.5224    9.6756    6.9171 C   0  0  2  0  0  0  0  0  0  0  0  0
   16.7143   10.4701    5.7367 O   0  0  0  0  0  0  0  0  0  0  0  0
   12.4065    6.4698    3.3013 C   0  0  2  0  0  0  0  0  0  0  0  0
   12.3333    5.3901    2.2909 N   0  0  0  0  0  0  0  0  0  0  0  0
   14.8278   11.5700   10.5841 H   0  0  0  0  0  0  0  0  0  0  0  0
   14.2686   12.8289   11.6806 H   0  0  0  0  0  0  0  0  0  0  0  0
   14.5136   13.1908    9.9557 H   0  0  0  0  0  0  0  0  0  0  0  0
   12.4547   11.2138   11.0561 H   0  0  0  0  0  0  0  0  0  0  0  0
   12.6905   11.6409    9.3543 H   0  0  0  0  0  0  0  0  0  0  0  0
   11.9016   13.8995    9.6960 H   0  0  0  0  0  0  0  0  0  0  0  0
   12.0365   13.7497   11.4403 H   0  0  0  0  0  0  0  0  0  0  0  0
    9.7685   13.6967   11.0213 H   0  0  0  0  0  0  0  0  0  0  0  0
   10.1661   12.0440   11.4420 H   0  0  0  0  0  0  0  0  0  0  0  0
   10.1844   12.6619    8.4832 H   0  0  0  0  0  0  0  0  0  0  0  0
    8.6577   12.9538    9.2866 H   0  0  0  0  0  0  0  0  0  0  0  0
    8.5225   10.7800    8.4169 H   0  0  0  0  0  0  0  0  0  0  0  0
    8.6204   10.5969   10.1643 H   0  0  0  0  0  0  0  0  0  0  0  0
   10.8561    9.7670   10.0822 H   0  0  0  0  0  0  0  0  0  0  0  0
   11.1423   10.5374    8.5268 H   0  0  0  0  0  0  0  0  0  0  0  0
   11.0874    8.5606    7.7672 H   0  0  0  0  0  0  0  0  0  0  0  0
    9.3709    8.8410    7.5703 H   0  0  0  0  0  0  0  0  0  0  0  0
    8.8441    7.3256    9.3649 H   0  0  0  0  0  0  0  0  0  0  0  0
   10.4610    7.4165   10.0532 H   0  0  0  0  0  0  0  0  0  0  0  0
   11.3183    6.4548    7.7996 H   0  0  0  0  0  0  0  0  0  0  0  0
    9.6259    6.1014    7.4309 H   0  0  0  0  0  0  0  0  0  0  0  0
    9.6322    4.6949    9.5947 H   0  0  0  0  0  0  0  0  0  0  0  0
   11.3646    4.9288    9.6416 H   0  0  0  0  0  0  0  0  0  0  0  0
    9.7335    3.5776    7.4319 H   0  0  0  0  0  0  0  0  0  0  0  0
   10.7308    1.7579    8.1981 H   0  0  0  0  0  0  0  0  0  0  0  0
   12.3311    2.8444    6.8346 H   0  0  0  0  0  0  0  0  0  0  0  0
   12.6467    4.4675    7.3907 H   0  0  0  0  0  0  0  0  0  0  0  0
   10.3843    5.8243    3.8600 H   0  0  0  0  0  0  0  0  0  0  0  0
   11.1640    7.8018    5.8824 H   0  0  0  0  0  0  0  0  0  0  0  0
    9.0926    6.9312    5.6842 H   0  0  0  0  0  0  0  0  0  0  0  0
   10.3361    9.0727    3.2619 H   0  0  0  0  0  0  0  0  0  0  0  0
    9.9738   10.2488    5.4955 H   0  0  0  0  0  0  0  0  0  0  0  0
   11.0319   11.1151    4.3656 H   0  0  0  0  0  0  0  0  0  0  0  0
   12.8147   10.2378    5.4291 H   0  0  0  0  0  0  0  0  0  0  0  0
   11.7016    7.9677    1.9039 H   0  0  0  0  0  0  0  0  0  0  0  0
   15.8445   10.1546    3.3853 H   0  0  0  0  0  0  0  0  0  0  0  0
   17.8066    7.0166    2.4127 H   0  0  0  0  0  0  0  0  0  0  0  0
   17.8914    7.8086    5.6194 H   0  0  0  0  0  0  0  0  0  0  0  0
   17.5639    6.9461    7.1231 H   0  0  0  0  0  0  0  0  0  0  0  0
   15.2752    8.4070    5.7234 H   0  0  0  0  0  0  0  0  0  0  0  0
   13.6242    9.0857    7.8471 H   0  0  0  0  0  0  0  0  0  0  0  0
   12.6756    7.7427    9.3318 H   0  0  0  0  0  0  0  0  0  0  0  0
   12.2330    7.2522   11.7274 H   0  0  0  0  0  0  0  0  0  0  0  0
   15.9933    8.9094   12.5589 H   0  0  0  0  0  0  0  0  0  0  0  0
   15.8480   10.8568    8.6167 H   0  0  0  0  0  0  0  0  0  0  0  0
   14.2621   11.8170    7.6062 H   0  0  0  0  0  0  0  0  0  0  0  0
   17.4677    9.5996    7.4643 H   0  0  0  0  0  0  0  0  0  0  0  0
   15.9632   11.1061    5.7511 H   0  0  0  0  0  0  0  0  0  0  0  0
   13.3242    6.2712    3.8577 H   0  0  0  0  0  0  0  0  0  0  0  0
   13.0576    5.5275    1.5827 H   0  0  0  0  0  0  0  0  0  0  0  0
   11.4432    5.4174    1.7920 H   0  0  0  0  0  0  0  0  0  0  0  0
  1  2  1  0  0  0  0
  1 53  1  0  0  0  0
  1 54  1  0  0  0  0
  1 55  1  0  0  0  0
  2  3  1  0  0  0  0
  2 56  1  0  0  0  0
  2 57  1  0  0  0  0
  3  4  1  0  0  0  0
  3 58  1  0  0  0  0
  3 59  1  0  0  0  0
  4  5  1  0  0  0  0
  4 60  1  0  0  0  0
  4 61  1  0  0  0  0
  5  6  1  0  0  0  0
  5 62  1  0  0  0  0
  5 63  1  0  0  0  0
  6  7  1  0  0  0  0
  6 64  1  0  0  0  0
  6 65  1  0  0  0  0
  7  8  1  0  0  0  0
  7 66  1  0  0  0  0
  7 67  1  0  0  0  0
  8  9  1  0  0  0  0
  8 68  1  0  0  0  0
  8 69  1  0  0  0  0
  9 10  1  0  0  0  0
  9 70  1  0  0  0  0
  9 71  1  0  0  0  0
 10 11  1  0  0  0  0
 10 72  1  0  0  0  0
 10 73  1  0  0  0  0
 11 12  1  0  0  0  0
 11 74  1  0  0  0  0
 11 75  1  0  0  0  0
 12 13  1  0  0  0  0
 12 14  1  0  0  0  0
 12 76  1  0  0  0  0
 13 77  1  0  0  0  0
 14 15  1  0  0  0  0
 14 78  1  0  0  0  0
 14 79  1  0  0  0  0
 15 16  2  0  0  0  0
 15 17  1  0  0  0  0
 18 19  1  0  0  0  0
 18 51  1  0  0  0  0
 18 17  1  0  0  0  0
 18 80  1  6  0  0  0
 19 21  1  0  0  0  0
 19 20  1  0  0  0  0
 19 81  1  1  0  0  0
 20 82  1  0  0  0  0
 21 22  1  0  0  0  0
 21 24  1  0  0  0  0
 21 83  1  6  0  0  0
 22 23  1  0  0  0  0
 22 84  1  0  0  0  0
 22 85  1  0  0  0  0
 23 86  1  0  0  0  0
 24 25  1  0  0  0  0
 25 26  1  0  0  0  0
 25 51  1  0  0  0  0
 25 87  1  0  0  0  0
 26 27  1  0  0  0  0
 27 28  2  0  0  0  0
 27 29  1  0  0  0  0
 27 30  1  0  0  0  0
 29 88  1  0  0  0  0
 30 31  1  0  0  0  0
 31 32  2  0  0  0  0
 31 33  1  0  0  0  0
 31 34  1  0  0  0  0
 33 89  1  0  0  0  0
 34 35  1  0  0  0  0
 35 36  1  0  0  0  0
 35 90  1  0  0  0  0
 35 91  1  0  0  0  0
 36 37  1  0  0  0  0
 36 49  1  0  0  0  0
 36 92  1  6  0  0  0
 37 38  1  0  0  0  0
 38 39  1  0  0  0  0
 38 47  1  0  0  0  0
 38 93  1  6  0  0  0
 39 40  1  0  0  0  0
 39 45  1  0  0  0  0
 40 41  2  0  0  0  0
 40 94  1  0  0  0  0
 41 42  1  0  0  0  0
 41 95  1  0  0  0  0
 42 43  2  0  0  0  0
 42 44  1  0  0  0  0
 44 45  1  0  0  0  0
 44 96  1  0  0  0  0
 45 46  2  0  0  0  0
 47 48  1  0  0  0  0
 47 49  1  0  0  0  0
 47 97  1  1  0  0  0
 48 98  1  0  0  0  0
 49 50  1  0  0  0  0
 49 99  1  1  0  0  0
 50100  1  0  0  0  0
 51 52  1  0  0  0  0
 51101  1  1  0  0  0
 52102  1  0  0  0  0
 52103  1  0  0  0  0
M  END
$$$$
