CHEBI:15657
 OpenBabel04242413013D

 54 53  0  0  1  0  0  0  0  0999 V2000
    8.2595   -3.9061   -6.6246 C   0  0  0  0  0  0  0  0  0  0  0  0
    7.3999   -2.9947   -7.4919 C   0  0  0  0  0  0  0  0  0  0  0  0
    7.4917   -1.5074   -7.1411 C   0  0  0  0  0  0  0  0  0  0  0  0
    7.1429   -1.1144   -5.7078 C   0  0  0  0  0  0  0  0  0  0  0  0
    5.6475   -1.0095   -5.3337 C   0  0  0  0  0  0  0  0  0  0  0  0
    4.8647   -2.2952   -5.3321 C   0  0  0  0  0  0  0  0  0  0  0  0
    3.5831   -2.6281   -5.0755 C   0  0  0  0  0  0  0  0  0  0  0  0
    2.2313   -2.0875   -4.6752 C   0  0  1  0  0  0  0  0  0  0  0  0
    1.8775   -0.8721   -3.8525 C   0  0  0  0  0  0  0  0  0  0  0  0
    2.3167   -0.0344   -2.8959 C   0  0  0  0  0  0  0  0  0  0  0  0
    3.5610    0.1816   -2.0810 C   0  0  0  0  0  0  0  0  0  0  0  0
    4.6634   -0.8549   -2.1823 C   0  0  0  0  0  0  0  0  0  0  0  0
    4.7793   -1.9002   -1.0893 C   0  0  0  0  0  0  0  0  0  0  0  0
    5.3119   -3.2498   -1.6118 C   0  0  0  0  0  0  0  0  0  0  0  0
    6.6626   -3.3269   -2.3482 C   0  0  0  0  0  0  0  0  0  0  0  0
    7.8860   -2.7679   -1.6181 C   0  0  0  0  0  0  0  0  0  0  0  0
    9.2026   -3.1635   -2.3194 C   0  0  0  0  0  0  0  0  0  0  0  0
    9.7815   -2.0750   -3.2027 C   0  0  0  0  0  0  0  0  0  0  0  0
    9.6893   -0.8824   -2.9898 O   0  0  0  0  0  0  0  0  0  0  0  0
   10.4897   -2.5627   -4.2514 O   0  0  0  0  0  0  0  0  0  0  0  0
    1.4941   -1.9891   -5.9245 O   0  0  0  0  0  0  0  0  0  0  0  0
    0.1360   -2.4793   -5.6655 O   0  0  0  0  0  0  0  0  0  0  0  0
    8.1120   -4.9501   -6.9201 H   0  0  0  0  0  0  0  0  0  0  0  0
    8.0070   -3.8346   -5.5632 H   0  0  0  0  0  0  0  0  0  0  0  0
    9.3217   -3.6708   -6.7442 H   0  0  0  0  0  0  0  0  0  0  0  0
    6.3606   -3.3305   -7.4637 H   0  0  0  0  0  0  0  0  0  0  0  0
    7.7200   -3.1174   -8.5333 H   0  0  0  0  0  0  0  0  0  0  0  0
    6.8660   -0.9317   -7.8319 H   0  0  0  0  0  0  0  0  0  0  0  0
    8.5269   -1.1899   -7.3258 H   0  0  0  0  0  0  0  0  0  0  0  0
    7.5759   -0.1193   -5.5312 H   0  0  0  0  0  0  0  0  0  0  0  0
    7.6626   -1.7683   -5.0019 H   0  0  0  0  0  0  0  0  0  0  0  0
    5.1443   -0.2431   -5.9253 H   0  0  0  0  0  0  0  0  0  0  0  0
    5.7095   -0.6212   -4.3244 H   0  0  0  0  0  0  0  0  0  0  0  0
    5.4844   -3.1631   -5.5565 H   0  0  0  0  0  0  0  0  0  0  0  0
    3.4283   -3.7019   -5.2442 H   0  0  0  0  0  0  0  0  0  0  0  0
    1.7779   -2.9156   -4.1063 H   0  0  0  0  0  0  0  0  0  0  0  0
    0.8263   -0.6455   -4.0831 H   0  0  0  0  0  0  0  0  0  0  0  0
    1.5627    0.7073   -2.6020 H   0  0  0  0  0  0  0  0  0  0  0  0
    3.2798    0.3378   -1.0327 H   0  0  0  0  0  0  0  0  0  0  0  0
    3.9601    1.1452   -2.4296 H   0  0  0  0  0  0  0  0  0  0  0  0
    5.6231   -0.3310   -2.2559 H   0  0  0  0  0  0  0  0  0  0  0  0
    4.4815   -1.4005   -3.0872 H   0  0  0  0  0  0  0  0  0  0  0  0
    3.7890   -2.0798   -0.6550 H   0  0  0  0  0  0  0  0  0  0  0  0
    5.4213   -1.5232   -0.2872 H   0  0  0  0  0  0  0  0  0  0  0  0
    4.5585   -3.6559   -2.3019 H   0  0  0  0  0  0  0  0  0  0  0  0
    5.3415   -3.9446   -0.7662 H   0  0  0  0  0  0  0  0  0  0  0  0
    6.5906   -2.8514   -3.3257 H   0  0  0  0  0  0  0  0  0  0  0  0
    6.8387   -4.3922   -2.5529 H   0  0  0  0  0  0  0  0  0  0  0  0
    7.9022   -3.1823   -0.6043 H   0  0  0  0  0  0  0  0  0  0  0  0
    7.7964   -1.6807   -1.5262 H   0  0  0  0  0  0  0  0  0  0  0  0
    9.0603   -4.0757   -2.9101 H   0  0  0  0  0  0  0  0  0  0  0  0
    9.9687   -3.3792   -1.5656 H   0  0  0  0  0  0  0  0  0  0  0  0
   10.5192   -3.5351   -4.3123 H   0  0  0  0  0  0  0  0  0  0  0  0
    0.1357   -3.1634   -6.3583 H   0  0  0  0  0  0  0  0  0  0  0  0
  1  2  1  0  0  0  0
  1 23  1  0  0  0  0
  1 24  1  0  0  0  0
  1 25  1  0  0  0  0
  2  3  1  0  0  0  0
  2 26  1  0  0  0  0
  2 27  1  0  0  0  0
  3  4  1  0  0  0  0
  3 28  1  0  0  0  0
  3 29  1  0  0  0  0
  4  5  1  0  0  0  0
  4 30  1  0  0  0  0
  4 31  1  0  0  0  0
  5  6  1  0  0  0  0
  5 32  1  0  0  0  0
  5 33  1  0  0  0  0
  6  7  2  0  0  0  0
  6 34  1  0  0  0  0
  7  8  1  0  0  0  0
  7 35  1  0  0  0  0
  8  9  1  0  0  0  0
  8 21  1  0  0  0  0
  8 36  1  1  0  0  0
  9 10  2  0  0  0  0
  9 37  1  0  0  0  0
 10 11  1  0  0  0  0
 10 38  1  0  0  0  0
 11 12  1  0  0  0  0
 11 39  1  0  0  0  0
 11 40  1  0  0  0  0
 12 13  1  0  0  0  0
 12 41  1  0  0  0  0
 12 42  1  0  0  0  0
 13 14  1  0  0  0  0
 13 43  1  0  0  0  0
 13 44  1  0  0  0  0
 14 15  1  0  0  0  0
 14 45  1  0  0  0  0
 14 46  1  0  0  0  0
 15 16  1  0  0  0  0
 15 47  1  0  0  0  0
 15 48  1  0  0  0  0
 16 17  1  0  0  0  0
 16 49  1  0  0  0  0
 16 50  1  0  0  0  0
 17 18  1  0  0  0  0
 17 51  1  0  0  0  0
 17 52  1  0  0  0  0
 18 19  2  0  0  0  0
 18 20  1  0  0  0  0
 20 53  1  0  0  0  0
 21 22  1  0  0  0  0
 22 54  1  0  0  0  0
M  END
$$$$
