CHEBI:17314
 OpenBabel04242416153D

 69 68  0  0  0  0  0  0  0  0999 V2000
    7.1997   -0.8048   -0.4747 C   0  0  0  0  0  0  0  0  0  0  0  0
    5.9119   -0.7791   -1.2497 C   0  0  0  0  0  0  0  0  0  0  0  0
    5.8576    0.3659   -2.2521 C   0  0  0  0  0  0  0  0  0  0  0  0
    5.7550    1.7732   -1.6490 C   0  0  0  0  0  0  0  0  0  0  0  0
    7.0696    2.5538   -1.4640 C   0  0  0  0  0  0  0  0  0  0  0  0
    7.8568    2.4261   -0.1486 C   0  0  0  0  0  0  0  0  0  0  0  0
    7.0535    2.6259    1.1352 C   0  0  0  0  0  0  0  0  0  0  0  0
    7.7013    2.1219    2.4366 C   0  0  0  0  0  0  0  0  0  0  0  0
    9.1304    2.5559    2.7688 C   0  0  0  0  0  0  0  0  0  0  0  0
   10.3324    1.9210    2.0397 C   0  0  0  0  0  0  0  0  0  0  0  0
   11.4924    2.6701    2.4536 O   0  0  0  0  0  0  0  0  0  0  0  0
   10.6699    0.4508    2.3663 C   0  0  0  0  0  0  0  0  0  0  0  0
    9.7671   -0.5977    1.7171 C   0  0  0  0  0  0  0  0  0  0  0  0
   10.1759   -2.0415    2.0517 C   0  0  0  0  0  0  0  0  0  0  0  0
    9.1951   -3.1036    1.5152 C   0  0  0  0  0  0  0  0  0  0  0  0
    7.8307   -3.0858    2.2241 C   0  0  0  0  0  0  0  0  0  0  0  0
    6.7648   -3.9433    1.5303 C   0  0  0  0  0  0  0  0  0  0  0  0
    5.3229   -3.6197    1.9627 C   0  0  0  0  0  0  0  0  0  0  0  0
    4.9847   -3.9841    3.4118 C   0  0  0  0  0  0  0  0  0  0  0  0
    5.3289   -2.8883    4.4254 C   0  0  0  0  0  0  0  0  0  0  0  0
    5.0079   -3.2724    5.8724 C   0  0  0  0  0  0  0  0  0  0  0  0
    5.7437   -4.5245    6.3392 C   0  0  0  0  0  0  0  0  0  0  0  0
    5.6001   -4.7042    7.8269 C   0  0  0  0  0  0  0  0  0  0  0  0
    6.4145   -4.3015    8.6458 O   0  0  0  0  0  0  0  0  0  0  0  0
    4.4603   -5.3350    8.1831 O   0  0  0  0  0  0  0  0  0  0  0  0
    8.0631   -0.5454   -1.0941 H   0  0  0  0  0  0  0  0  0  0  0  0
    7.3673   -1.8018   -0.0902 H   0  0  0  0  0  0  0  0  0  0  0  0
    7.1349   -0.1403    0.3862 H   0  0  0  0  0  0  0  0  0  0  0  0
    5.0647   -0.7357   -0.5552 H   0  0  0  0  0  0  0  0  0  0  0  0
    5.8224   -1.7273   -1.7936 H   0  0  0  0  0  0  0  0  0  0  0  0
    4.9539    0.1970   -2.8527 H   0  0  0  0  0  0  0  0  0  0  0  0
    6.7005    0.2990   -2.9496 H   0  0  0  0  0  0  0  0  0  0  0  0
    5.1390    1.7660   -0.7468 H   0  0  0  0  0  0  0  0  0  0  0  0
    5.1776    2.3539   -2.3824 H   0  0  0  0  0  0  0  0  0  0  0  0
    6.8268    3.6179   -1.5819 H   0  0  0  0  0  0  0  0  0  0  0  0
    7.7494    2.3141   -2.2920 H   0  0  0  0  0  0  0  0  0  0  0  0
    8.6422    3.1934   -0.1728 H   0  0  0  0  0  0  0  0  0  0  0  0
    8.3861    1.4750   -0.1346 H   0  0  0  0  0  0  0  0  0  0  0  0
    6.0908    2.1102    1.0648 H   0  0  0  0  0  0  0  0  0  0  0  0
    6.8169    3.6916    1.2409 H   0  0  0  0  0  0  0  0  0  0  0  0
    7.5937    1.0407    2.5034 H   0  0  0  0  0  0  0  0  0  0  0  0
    7.0641    2.4989    3.2502 H   0  0  0  0  0  0  0  0  0  0  0  0
    9.2832    2.3900    3.8451 H   0  0  0  0  0  0  0  0  0  0  0  0
    9.1816    3.6474    2.6547 H   0  0  0  0  0  0  0  0  0  0  0  0
   10.2641    2.0542    0.9591 H   0  0  0  0  0  0  0  0  0  0  0  0
   11.3293    3.6080    2.2554 H   0  0  0  0  0  0  0  0  0  0  0  0
   10.6873    0.3139    3.4544 H   0  0  0  0  0  0  0  0  0  0  0  0
   11.7004    0.2586    2.0352 H   0  0  0  0  0  0  0  0  0  0  0  0
    9.7835   -0.4620    0.6306 H   0  0  0  0  0  0  0  0  0  0  0  0
    8.7500   -0.4449    2.0579 H   0  0  0  0  0  0  0  0  0  0  0  0
   10.2754   -2.1587    3.1366 H   0  0  0  0  0  0  0  0  0  0  0  0
   11.1637   -2.2336    1.6155 H   0  0  0  0  0  0  0  0  0  0  0  0
    9.6415   -4.0958    1.6538 H   0  0  0  0  0  0  0  0  0  0  0  0
    9.0810   -2.9723    0.4341 H   0  0  0  0  0  0  0  0  0  0  0  0
    7.4537   -2.0623    2.3006 H   0  0  0  0  0  0  0  0  0  0  0  0
    7.9803   -3.4545    3.2442 H   0  0  0  0  0  0  0  0  0  0  0  0
    6.9757   -5.0053    1.6987 H   0  0  0  0  0  0  0  0  0  0  0  0
    6.8159   -3.7959    0.4452 H   0  0  0  0  0  0  0  0  0  0  0  0
    4.6557   -4.2025    1.3132 H   0  0  0  0  0  0  0  0  0  0  0  0
    5.0904   -2.5657    1.7666 H   0  0  0  0  0  0  0  0  0  0  0  0
    5.4778   -4.9281    3.6631 H   0  0  0  0  0  0  0  0  0  0  0  0
    3.9041   -4.1674    3.4756 H   0  0  0  0  0  0  0  0  0  0  0  0
    4.7714   -1.9774    4.1738 H   0  0  0  0  0  0  0  0  0  0  0  0
    6.3861   -2.6221    4.3755 H   0  0  0  0  0  0  0  0  0  0  0  0
    3.9264   -3.4102    5.9893 H   0  0  0  0  0  0  0  0  0  0  0  0
    5.2805   -2.4279    6.5189 H   0  0  0  0  0  0  0  0  0  0  0  0
    6.8141   -4.4599    6.1103 H   0  0  0  0  0  0  0  0  0  0  0  0
    5.3744   -5.4263    5.8389 H   0  0  0  0  0  0  0  0  0  0  0  0
    3.8982   -5.5915    7.4279 H   0  0  0  0  0  0  0  0  0  0  0  0
  1  2  1  0  0  0  0
  1 26  1  0  0  0  0
  1 27  1  0  0  0  0
  1 28  1  0  0  0  0
  2  3  1  0  0  0  0
  2 29  1  0  0  0  0
  2 30  1  0  0  0  0
  3  4  1  0  0  0  0
  3 31  1  0  0  0  0
  3 32  1  0  0  0  0
  4  5  1  0  0  0  0
  4 33  1  0  0  0  0
  4 34  1  0  0  0  0
  5  6  1  0  0  0  0
  5 35  1  0  0  0  0
  5 36  1  0  0  0  0
  6  7  1  0  0  0  0
  6 37  1  0  0  0  0
  6 38  1  0  0  0  0
  7  8  1  0  0  0  0
  7 39  1  0  0  0  0
  7 40  1  0  0  0  0
  8  9  1  0  0  0  0
  8 41  1  0  0  0  0
  8 42  1  0  0  0  0
  9 10  1  0  0  0  0
  9 43  1  0  0  0  0
  9 44  1  0  0  0  0
 10 11  1  0  0  0  0
 10 12  1  0  0  0  0
 10 45  1  0  0  0  0
 11 46  1  0  0  0  0
 12 13  1  0  0  0  0
 12 47  1  0  0  0  0
 12 48  1  0  0  0  0
 13 14  1  0  0  0  0
 13 49  1  0  0  0  0
 13 50  1  0  0  0  0
 14 15  1  0  0  0  0
 14 51  1  0  0  0  0
 14 52  1  0  0  0  0
 15 16  1  0  0  0  0
 15 53  1  0  0  0  0
 15 54  1  0  0  0  0
 16 17  1  0  0  0  0
 16 55  1  0  0  0  0
 16 56  1  0  0  0  0
 17 18  1  0  0  0  0
 17 57  1  0  0  0  0
 17 58  1  0  0  0  0
 18 19  1  0  0  0  0
 18 59  1  0  0  0  0
 18 60  1  0  0  0  0
 19 20  1  0  0  0  0
 19 61  1  0  0  0  0
 19 62  1  0  0  0  0
 20 21  1  0  0  0  0
 20 63  1  0  0  0  0
 20 64  1  0  0  0  0
 21 22  1  0  0  0  0
 21 65  1  0  0  0  0
 21 66  1  0  0  0  0
 22 23  1  0  0  0  0
 22 67  1  0  0  0  0
 22 68  1  0  0  0  0
 23 24  2  0  0  0  0
 23 25  1  0  0  0  0
 25 69  1  0  0  0  0
M  END
$$$$
