CHEBI:18430
 OpenBabel04252409373D

 56 60  0  0  1  0  0  0  0  0999 V2000
    3.9409   -0.2547   -3.1177 C   0  0  0  0  0  0  0  0  0  0  0  0
    3.5267   -1.6787   -3.4925 C   0  0  0  0  0  0  0  0  0  0  0  0
    4.5020   -2.8246   -3.0526 C   0  0  2  0  0  0  0  0  0  0  0  0
    4.5498   -2.7667   -1.5305 C   0  0  0  0  0  0  0  0  0  0  0  0
    5.6335   -3.1549   -0.8511 C   0  0  0  0  0  0  0  0  0  0  0  0
    6.8250   -3.7162   -1.5435 C   0  0  0  0  0  0  0  0  0  0  0  0
    7.1188   -3.1041   -2.8355 N   0  0  0  0  0  0  0  0  0  0  0  0
    7.9777   -3.9838   -3.6386 C   0  0  0  0  0  0  0  0  0  0  0  0
    7.0363   -4.5901   -4.6592 C   0  0  0  0  0  0  0  0  0  0  0  0
    6.1398   -3.4022   -5.0218 C   0  0  2  0  0  0  0  0  0  0  0  0
    6.7821   -2.6929   -6.1968 C   0  0  0  0  0  0  0  0  0  0  0  0
    7.7919   -1.7501   -6.2496 C   0  0  0  0  0  0  0  0  0  0  0  0
    8.2437   -1.3318   -7.5072 C   0  0  0  0  0  0  0  0  0  0  0  0
    7.6954   -1.8654   -8.6885 C   0  0  0  0  0  0  0  0  0  0  0  0
    8.0768   -1.5363   -9.9628 O   0  0  0  0  0  0  0  0  0  0  0  0
    9.1329   -0.5934  -10.0948 C   0  0  0  0  0  0  0  0  0  0  0  0
    6.6656   -2.8113   -8.6199 C   0  0  0  0  0  0  0  0  0  0  0  0
    6.1954   -3.1836   -7.3761 C   0  0  0  0  0  0  0  0  0  0  0  0
    5.1365   -4.1237   -7.1194 N   0  0  0  0  0  0  0  0  0  0  0  0
    4.8071   -3.7020   -5.7313 C   0  0  1  0  0  0  0  0  0  0  0  0
    3.8048   -4.5433   -4.9388 C   0  0  1  0  0  0  0  0  0  0  0  0
    2.4716   -4.1486   -5.3560 O   0  0  0  0  0  0  0  0  0  0  0  0
    3.9634   -6.0562   -5.2116 C   0  0  0  0  0  0  0  0  0  0  0  0
    4.6420   -6.8407   -4.5625 O   0  0  0  0  0  0  0  0  0  0  0  0
    3.1961   -6.4105   -6.2938 O   0  0  0  0  0  0  0  0  0  0  0  0
    3.2889   -7.7911   -6.6490 C   0  0  0  0  0  0  0  0  0  0  0  0
    3.8953   -4.2269   -3.4233 C   0  0  0  0  0  0  0  0  0  0  0  0
    5.9599   -2.6620   -3.6749 C   0  0  2  0  0  0  0  0  0  0  0  0
    4.8354    0.0656   -3.6579 H   0  0  0  0  0  0  0  0  0  0  0  0
    4.1228   -0.1454   -2.0451 H   0  0  0  0  0  0  0  0  0  0  0  0
    3.1389    0.4416   -3.3862 H   0  0  0  0  0  0  0  0  0  0  0  0
    3.3483   -1.6822   -4.5677 H   0  0  0  0  0  0  0  0  0  0  0  0
    2.5401   -1.8631   -3.0438 H   0  0  0  0  0  0  0  0  0  0  0  0
    3.6678   -2.4434   -0.9823 H   0  0  0  0  0  0  0  0  0  0  0  0
    5.6316   -3.1466    0.2344 H   0  0  0  0  0  0  0  0  0  0  0  0
    6.6694   -4.8001   -1.6293 H   0  0  0  0  0  0  0  0  0  0  0  0
    7.6990   -3.5739   -0.8964 H   0  0  0  0  0  0  0  0  0  0  0  0
    8.4995   -4.7524   -3.0565 H   0  0  0  0  0  0  0  0  0  0  0  0
    8.7555   -3.3847   -4.1236 H   0  0  0  0  0  0  0  0  0  0  0  0
    6.4792   -5.3929   -4.1754 H   0  0  0  0  0  0  0  0  0  0  0  0
    7.5843   -5.0256   -5.5020 H   0  0  0  0  0  0  0  0  0  0  0  0
    8.2402   -1.3504   -5.3450 H   0  0  0  0  0  0  0  0  0  0  0  0
    9.0393   -0.5940   -7.5350 H   0  0  0  0  0  0  0  0  0  0  0  0
    9.3212   -0.4496  -11.1631 H   0  0  0  0  0  0  0  0  0  0  0  0
   10.0566   -0.9684   -9.6417 H   0  0  0  0  0  0  0  0  0  0  0  0
    8.8502    0.3771   -9.6736 H   0  0  0  0  0  0  0  0  0  0  0  0
    6.2411   -3.2269   -9.5266 H   0  0  0  0  0  0  0  0  0  0  0  0
    4.3887   -3.9667   -7.7948 H   0  0  0  0  0  0  0  0  0  0  0  0
    4.2965   -2.7407   -5.8954 H   0  0  0  0  0  0  0  0  0  0  0  0
    2.3140   -4.6082   -6.2051 H   0  0  0  0  0  0  0  0  0  0  0  0
    2.5051   -8.0041   -7.3812 H   0  0  0  0  0  0  0  0  0  0  0  0
    3.1294   -8.4383   -5.7807 H   0  0  0  0  0  0  0  0  0  0  0  0
    4.2607   -7.9910   -7.1098 H   0  0  0  0  0  0  0  0  0  0  0  0
    4.4985   -4.9978   -2.9269 H   0  0  0  0  0  0  0  0  0  0  0  0
    2.8939   -4.3147   -2.9773 H   0  0  0  0  0  0  0  0  0  0  0  0
    6.1388   -1.5954   -3.8400 H   0  0  0  0  0  0  0  0  0  0  0  0
  1  2  1  0  0  0  0
  1 29  1  0  0  0  0
  1 30  1  0  0  0  0
  1 31  1  0  0  0  0
  2 32  1  0  0  0  0
  2 33  1  0  0  0  0
  3  4  1  0  0  0  0
  3 27  1  0  0  0  0
  3 28  1  0  0  0  0
  3  2  1  1  0  0  0
  4  5  2  0  0  0  0
  4 34  1  0  0  0  0
  5  6  1  0  0  0  0
  5 35  1  0  0  0  0
  6  7  1  0  0  0  0
  6 36  1  0  0  0  0
  6 37  1  0  0  0  0
  7  8  1  0  0  0  0
  7 28  1  0  0  0  0
  8  9  1  0  0  0  0
  8 38  1  0  0  0  0
  8 39  1  0  0  0  0
  9 10  1  0  0  0  0
  9 40  1  0  0  0  0
  9 41  1  0  0  0  0
 10 11  1  1  0  0  0
 10 20  1  0  0  0  0
 10 28  1  0  0  0  0
 11 12  1  0  0  0  0
 11 18  2  0  0  0  0
 12 13  2  0  0  0  0
 12 42  1  0  0  0  0
 13 14  1  0  0  0  0
 13 43  1  0  0  0  0
 14 17  2  0  0  0  0
 14 15  1  0  0  0  0
 15 16  1  0  0  0  0
 16 44  1  0  0  0  0
 16 45  1  0  0  0  0
 16 46  1  0  0  0  0
 17 18  1  0  0  0  0
 17 47  1  0  0  0  0
 18 19  1  0  0  0  0
 19 20  1  0  0  0  0
 19 48  1  0  0  0  0
 20 21  1  0  0  0  0
 20 49  1  6  0  0  0
 21 27  1  0  0  0  0
 21 23  1  6  0  0  0
 21 22  1  0  0  0  0
 22 50  1  0  0  0  0
 23 24  2  0  0  0  0
 23 25  1  0  0  0  0
 25 26  1  0  0  0  0
 26 51  1  0  0  0  0
 26 52  1  0  0  0  0
 26 53  1  0  0  0  0
 27 54  1  0  0  0  0
 27 55  1  0  0  0  0
 28 56  1  1  0  0  0
M  END
$$$$
