CHEBI:17075
 OpenBabel04242415493D

 19 19  0  0  0  0  0  0  0  0999 V2000
    1.2714    0.1329   -0.7790 O   0  0  0  0  0  0  0  0  0  0  0  0
    2.3724    0.1261   -0.2355 C   0  0  0  0  0  0  0  0  0  0  0  0
    3.0724   -1.1713    0.1088 C   0  0  0  0  0  0  0  0  0  0  0  0
    4.0585   -1.2019    1.2701 C   0  0  0  0  0  0  0  0  0  0  0  0
    5.2317   -0.2468    1.0920 C   0  0  0  0  0  0  0  0  0  0  0  0
    4.9326    1.2042    1.4714 C   0  0  0  0  0  0  0  0  0  0  0  0
    3.5278    1.6939    1.1204 C   0  0  0  0  0  0  0  0  0  0  0  0
    2.5778    1.3888    2.1322 O   0  0  0  0  0  0  0  0  0  0  0  0
    3.1394    1.2363   -0.1747 O   0  0  0  0  0  0  0  0  0  0  0  0
    3.5790   -1.5053   -0.8064 H   0  0  0  0  0  0  0  0  0  0  0  0
    2.2883   -1.9070    0.3241 H   0  0  0  0  0  0  0  0  0  0  0  0
    4.4606   -2.2219    1.3288 H   0  0  0  0  0  0  0  0  0  0  0  0
    3.5493   -1.0297    2.2228 H   0  0  0  0  0  0  0  0  0  0  0  0
    5.5837   -0.2883    0.0534 H   0  0  0  0  0  0  0  0  0  0  0  0
    6.0724   -0.5902    1.7074 H   0  0  0  0  0  0  0  0  0  0  0  0
    5.6670    1.8282    0.9464 H   0  0  0  0  0  0  0  0  0  0  0  0
    5.1143    1.3423    2.5445 H   0  0  0  0  0  0  0  0  0  0  0  0
    3.5556    2.7877    1.0658 H   0  0  0  0  0  0  0  0  0  0  0  0
    3.0147    0.9077    2.8517 H   0  0  0  0  0  0  0  0  0  0  0  0
  1  2  2  0  0  0  0
  2  3  1  0  0  0  0
  2  9  1  0  0  0  0
  3  4  1  0  0  0  0
  3 10  1  0  0  0  0
  3 11  1  0  0  0  0
  4  5  1  0  0  0  0
  4 12  1  0  0  0  0
  4 13  1  0  0  0  0
  5  6  1  0  0  0  0
  5 14  1  0  0  0  0
  5 15  1  0  0  0  0
  6  7  1  0  0  0  0
  6 16  1  0  0  0  0
  6 17  1  0  0  0  0
  7  8  1  0  0  0  0
  7  9  1  0  0  0  0
  7 18  1  0  0  0  0
  8 19  1  0  0  0  0
M  END
$$$$
