CHEBI:15617
 OpenBabel04242412543D

 81 84  0  0  1  0  0  0  0  0999 V2000
   -5.6086    4.3873   -1.4601 C   0  0  0  0  0  0  0  0  0  0  0  0
   -5.2025    3.3044   -2.4054 C   0  0  0  0  0  0  0  0  0  0  0  0
   -4.2554    2.3624   -2.2605 C   0  0  0  0  0  0  0  0  0  0  0  0
   -3.3296    2.1143   -1.1705 C   0  0  0  0  0  0  0  0  0  0  0  0
   -2.8118    2.9744   -0.2837 C   0  0  0  0  0  0  0  0  0  0  0  0
   -1.7822    2.5649    0.7031 C   0  0  0  0  0  0  0  0  0  0  0  0
   -1.1553    1.4218    0.7150 N   0  0  0  0  0  0  0  0  0  0  0  0
   -0.2871    1.4831    1.7820 C   0  0  0  0  0  0  0  0  0  0  0  0
    0.4840    0.4694    2.2112 C   0  0  0  0  0  0  0  0  0  0  0  0
    0.5088   -0.8434    1.6537 C   0  0  0  0  0  0  0  0  0  0  0  0
    0.0387   -1.0733    0.3834 N   0  0  0  0  0  0  0  0  0  0  0  0
    0.1332   -2.4054    0.0519 C   0  0  0  0  0  0  0  0  0  0  0  0
   -0.3154   -2.7766   -1.2476 C   0  0  0  0  0  0  0  0  0  0  0  0
   -0.9506   -3.9201   -1.5380 C   0  0  0  0  0  0  0  0  0  0  0  0
   -1.3690   -4.8608   -0.6465 N   0  0  0  0  0  0  0  0  0  0  0  0
   -1.9111   -5.9583   -1.2626 C   0  0  0  0  0  0  0  0  0  0  0  0
   -2.3277   -6.9727   -0.7404 O   0  0  0  0  0  0  0  0  0  0  0  0
   -1.8778   -5.6618   -2.7167 C   0  0  0  0  0  0  0  0  0  0  0  0
   -2.3760   -6.6387   -3.7202 C   0  0  0  0  0  0  0  0  0  0  0  0
   -3.8929   -6.6192   -3.8215 C   0  0  0  0  0  0  0  0  0  0  0  0
   -1.3243   -4.4387   -2.8422 C   0  0  0  0  0  0  0  0  0  0  0  0
   -1.0957   -3.6844   -4.1078 C   0  0  0  0  0  0  0  0  0  0  0  0
    0.7416   -3.0496    1.1222 C   0  0  0  0  0  0  0  0  0  0  0  0
    1.1394   -4.4848    1.2263 C   0  0  0  0  0  0  0  0  0  0  0  0
    0.9572   -2.0593    2.1457 C   0  0  0  0  0  0  0  0  0  0  0  0
    1.5601   -2.3093    3.4943 C   0  0  0  0  0  0  0  0  0  0  0  0
    3.0807   -2.3292    3.4421 C   0  0  0  0  0  0  0  0  0  0  0  0
    3.6422   -2.6840    4.7883 C   0  0  0  0  0  0  0  0  0  0  0  0
    4.1699   -1.8771    5.5381 O   0  0  0  0  0  0  0  0  0  0  0  0
    3.5052   -3.9907    5.1044 O   0  0  0  0  0  0  0  0  0  0  0  0
   -0.4052    2.8060    2.3835 C   0  0  0  0  0  0  0  0  0  0  0  0
    0.3916    3.2598    3.5779 C   0  0  0  0  0  0  0  0  0  0  0  0
    1.8038    3.7437    3.2303 C   0  0  0  0  0  0  0  0  0  0  0  0
    1.8311    5.1523    2.6801 C   0  0  0  0  0  0  0  0  0  0  0  0
    0.8795    5.9138    2.6253 O   0  0  0  0  0  0  0  0  0  0  0  0
    3.0664    5.5232    2.2703 O   0  0  0  0  0  0  0  0  0  0  0  0
   -1.3668    3.5054    1.7581 C   0  0  0  0  0  0  0  0  0  0  0  0
   -1.9451    4.8444    2.0130 C   0  0  0  0  0  0  0  0  0  0  0  0
   -2.9577    0.8076   -1.2520 N   0  0  0  0  0  0  0  0  0  0  0  0
   -3.3594    0.1798   -2.4031 C   0  0  0  0  0  0  0  0  0  0  0  0
   -3.0794   -0.9636   -2.7240 O   0  0  0  0  0  0  0  0  0  0  0  0
   -4.1166    1.1965   -3.2405 C   0  0  2  0  0  0  0  0  0  0  0  0
   -3.3086    1.5611   -4.4779 C   0  0  0  0  0  0  0  0  0  0  0  0
   -6.7013    4.4661   -1.4515 H   0  0  0  0  0  0  0  0  0  0  0  0
   -5.2029    5.3487   -1.7871 H   0  0  0  0  0  0  0  0  0  0  0  0
   -5.3037    4.1959   -0.4295 H   0  0  0  0  0  0  0  0  0  0  0  0
   -5.8107    3.2680   -3.3101 H   0  0  0  0  0  0  0  0  0  0  0  0
   -3.0826    4.0208   -0.3036 H   0  0  0  0  0  0  0  0  0  0  0  0
    1.1099    0.6183    3.0850 H   0  0  0  0  0  0  0  0  0  0  0  0
   -0.3508   -0.3448   -0.2016 H   0  0  0  0  0  0  0  0  0  0  0  0
   -0.0975   -2.0855   -2.0593 H   0  0  0  0  0  0  0  0  0  0  0  0
   -1.3077   -4.7701    0.3545 H   0  0  0  0  0  0  0  0  0  0  0  0
   -2.0393   -7.6475   -3.4521 H   0  0  0  0  0  0  0  0  0  0  0  0
   -1.9474   -6.4329   -4.7071 H   0  0  0  0  0  0  0  0  0  0  0  0
   -4.3603   -6.8785   -2.8656 H   0  0  0  0  0  0  0  0  0  0  0  0
   -4.2310   -7.3442   -4.5686 H   0  0  0  0  0  0  0  0  0  0  0  0
   -4.2550   -5.6300   -4.1213 H   0  0  0  0  0  0  0  0  0  0  0  0
   -1.4116   -4.2504   -4.9892 H   0  0  0  0  0  0  0  0  0  0  0  0
   -0.0347   -3.4470   -4.2351 H   0  0  0  0  0  0  0  0  0  0  0  0
   -1.6636   -2.7494   -4.1065 H   0  0  0  0  0  0  0  0  0  0  0  0
    1.1051   -5.0002    0.2639 H   0  0  0  0  0  0  0  0  0  0  0  0
    0.4812   -5.0069    1.9288 H   0  0  0  0  0  0  0  0  0  0  0  0
    2.1660   -4.5769    1.5918 H   0  0  0  0  0  0  0  0  0  0  0  0
    1.1751   -3.2603    3.8838 H   0  0  0  0  0  0  0  0  0  0  0  0
    1.2238   -1.5478    4.2091 H   0  0  0  0  0  0  0  0  0  0  0  0
    3.4697   -1.3449    3.1542 H   0  0  0  0  0  0  0  0  0  0  0  0
    3.4702   -3.0365    2.7021 H   0  0  0  0  0  0  0  0  0  0  0  0
    3.0766   -4.5314    4.4136 H   0  0  0  0  0  0  0  0  0  0  0  0
    0.4672    2.4317    4.2935 H   0  0  0  0  0  0  0  0  0  0  0  0
   -0.1457    4.0454    4.1219 H   0  0  0  0  0  0  0  0  0  0  0  0
    2.2786    3.0718    2.5072 H   0  0  0  0  0  0  0  0  0  0  0  0
    2.4057    3.7518    4.1468 H   0  0  0  0  0  0  0  0  0  0  0  0
    3.7511    4.8377    2.3878 H   0  0  0  0  0  0  0  0  0  0  0  0
   -3.0389    4.8067    1.9889 H   0  0  0  0  0  0  0  0  0  0  0  0
   -1.6068    5.5586    1.2560 H   0  0  0  0  0  0  0  0  0  0  0  0
   -1.6696    5.2335    2.9967 H   0  0  0  0  0  0  0  0  0  0  0  0
   -2.3486    0.3719   -0.5683 H   0  0  0  0  0  0  0  0  0  0  0  0
   -5.0954    0.7786   -3.4999 H   0  0  0  0  0  0  0  0  0  0  0  0
   -2.3268    1.9728   -4.2154 H   0  0  0  0  0  0  0  0  0  0  0  0
   -3.8350    2.3037   -5.0862 H   0  0  0  0  0  0  0  0  0  0  0  0
   -3.1324    0.6759   -5.0987 H   0  0  0  0  0  0  0  0  0  0  0  0
  1  2  1  0  0  0  0
  1 44  1  0  0  0  0
  1 45  1  0  0  0  0
  1 46  1  0  0  0  0
  2  3  2  0  0  0  0
  2 47  1  0  0  0  0
  3  4  1  0  0  0  0
  3 42  1  0  0  0  0
  4  5  2  0  0  0  0
  4 39  1  0  0  0  0
  5  6  1  0  0  0  0
  5 48  1  0  0  0  0
  6  7  2  0  0  0  0
  6 37  1  0  0  0  0
  7  8  1  0  0  0  0
  8  9  2  0  0  0  0
  8 31  1  0  0  0  0
  9 10  1  0  0  0  0
  9 49  1  0  0  0  0
 10 11  1  0  0  0  0
 10 25  2  0  0  0  0
 11 12  1  0  0  0  0
 11 50  1  0  0  0  0
 12 13  1  0  0  0  0
 12 23  2  0  0  0  0
 13 14  2  0  0  0  0
 13 51  1  0  0  0  0
 14 15  1  0  0  0  0
 14 21  1  0  0  0  0
 15 16  1  0  0  0  0
 15 52  1  0  0  0  0
 16 17  2  0  0  0  0
 16 18  1  0  0  0  0
 18 19  1  0  0  0  0
 18 21  2  0  0  0  0
 19 20  1  0  0  0  0
 19 53  1  0  0  0  0
 19 54  1  0  0  0  0
 20 55  1  0  0  0  0
 20 56  1  0  0  0  0
 20 57  1  0  0  0  0
 21 22  1  0  0  0  0
 22 58  1  0  0  0  0
 22 59  1  0  0  0  0
 22 60  1  0  0  0  0
 23 24  1  0  0  0  0
 23 25  1  0  0  0  0
 24 61  1  0  0  0  0
 24 62  1  0  0  0  0
 24 63  1  0  0  0  0
 25 26  1  0  0  0  0
 26 27  1  0  0  0  0
 26 64  1  0  0  0  0
 26 65  1  0  0  0  0
 27 28  1  0  0  0  0
 27 66  1  0  0  0  0
 27 67  1  0  0  0  0
 28 29  2  0  0  0  0
 28 30  1  0  0  0  0
 30 68  1  0  0  0  0
 31 32  1  0  0  0  0
 31 37  2  0  0  0  0
 32 33  1  0  0  0  0
 32 69  1  0  0  0  0
 32 70  1  0  0  0  0
 33 34  1  0  0  0  0
 33 71  1  0  0  0  0
 33 72  1  0  0  0  0
 34 35  2  0  0  0  0
 34 36  1  0  0  0  0
 36 73  1  0  0  0  0
 37 38  1  0  0  0  0
 38 74  1  0  0  0  0
 38 75  1  0  0  0  0
 38 76  1  0  0  0  0
 39 40  1  0  0  0  0
 39 77  1  0  0  0  0
 40 41  2  0  0  0  0
 40 42  1  0  0  0  0
 42 43  1  0  0  0  0
 42 78  1  6  0  0  0
 43 79  1  0  0  0  0
 43 80  1  0  0  0  0
 43 81  1  0  0  0  0
M  END
$$$$
