CHEBI:18367
 OpenBabel04252409273D

  5  4  0  0  0  0  0  0  0  0999 V2000
    1.3334   -0.4020   -0.2270 O   0  0  0  0  0  0  0  0  0  0  0  0
    2.5759    0.3706    0.2456 P   0  0  0  0  0  0  0  0  0  0  0  0
    2.5630    1.7828   -0.3623 O   0  5  0  0  0  0  0  0  0  0  0  0
    2.5630    0.4728    1.7796 O   0  5  0  0  0  0  0  0  0  0  0  0
    3.8439   -0.3711   -0.2081 O   0  5  0  0  0  0  0  0  0  0  0  0
  1  2  2  0  0  0  0
  2  3  1  0  0  0  0
  2  4  1  0  0  0  0
  2  5  1  0  0  0  0
M  CHG  3   3  -1   4  -1   5  -1
M  END
$$$$
