CHEBI:16549
 OpenBabel04242414443D

 66 68  0  0  1  0  0  0  0  0999 V2000
    7.6149    5.1237    3.6337 C   0  0  0  0  0  0  0  0  0  0  0  0
    6.4744    4.2849    4.1332 C   0  0  0  0  0  0  0  0  0  0  0  0
    5.4651    4.7668    4.6394 O   0  0  0  0  0  0  0  0  0  0  0  0
    6.6628    2.9317    3.9760 N   0  0  0  0  0  0  0  0  0  0  0  0
    5.6085    1.9565    4.3119 C   0  0  1  0  0  0  0  0  0  0  0  0
    6.0212    0.5116    3.9372 C   0  0  0  0  0  0  0  0  0  0  0  0
    6.7402    0.5223    2.7116 O   0  0  0  0  0  0  0  0  0  0  0  0
    7.2489   -1.0724    2.2747 P   0  0  0  0  0  0  0  0  0  0  0  0
    7.9530   -0.4924    1.0467 O   0  0  0  0  0  0  0  0  0  0  0  0
    5.7436   -1.4041    1.7206 O   0  0  0  0  0  0  0  0  0  0  0  0
    7.7577   -2.6671    1.8377 O   0  0  0  0  0  0  0  0  0  0  0  0
    9.1666   -3.1174    2.4298 P   0  0  0  0  0  0  0  0  0  0  0  0
    9.3364   -2.8596    3.8906 O   0  0  0  0  0  0  0  0  0  0  0  0
    9.2228   -4.6857    2.0984 O   0  0  0  0  0  0  0  0  0  0  0  0
   10.3000   -2.5244    1.4688 O   0  0  0  0  0  0  0  0  0  0  0  0
   11.6274   -2.5524    1.9668 C   0  0  0  0  0  0  0  0  0  0  0  0
   12.6126   -1.9890    0.9350 C   0  0  1  0  0  0  0  0  0  0  0  0
   12.2202   -0.6380    0.5888 O   0  0  0  0  0  0  0  0  0  0  0  0
   13.1750    0.2887    1.1484 C   0  0  1  0  0  0  0  0  0  0  0  0
   12.4450    1.4887    1.5895 N   0  0  0  0  0  0  0  0  0  0  0  0
   11.5268    2.0371    0.7036 C   0  0  0  0  0  0  0  0  0  0  0  0
   10.9049    3.1936    0.9362 C   0  0  0  0  0  0  0  0  0  0  0  0
   11.1967    3.9081    2.1832 C   0  0  0  0  0  0  0  0  0  0  0  0
   10.7011    5.0035    2.4176 O   0  0  0  0  0  0  0  0  0  0  0  0
   12.0590    3.2844    3.0351 N   0  0  0  0  0  0  0  0  0  0  0  0
   12.7979    2.1659    2.7476 C   0  0  0  0  0  0  0  0  0  0  0  0
   13.7161    1.8396    3.4981 O   0  0  0  0  0  0  0  0  0  0  0  0
   13.9643   -0.5204    2.1920 C   0  0  2  0  0  0  0  0  0  0  0  0
   15.2815   -0.0332    2.4410 O   0  0  0  0  0  0  0  0  0  0  0  0
   14.0167   -1.8834    1.5227 C   0  0  2  0  0  0  0  0  0  0  0  0
   15.0028   -1.8687    0.4830 O   0  0  0  0  0  0  0  0  0  0  0  0
    6.8288   -0.0660    4.9547 O   0  0  0  0  0  0  0  0  0  0  0  0
    6.1255   -0.2827    6.1915 C   0  0  2  0  0  0  0  0  0  0  0  0
    5.7344   -1.7549    6.2775 C   0  0  0  0  0  0  0  0  0  0  0  0
    4.9108    0.6563    6.3972 C   0  0  1  0  0  0  0  0  0  0  0  0
    4.5222    0.7588    7.8150 N   0  0  0  0  0  0  0  0  0  0  0  0
    5.2355    2.0428    5.8133 C   0  0  2  0  0  0  0  0  0  0  0  0
    4.0929    2.8992    5.9870 O   0  0  0  0  0  0  0  0  0  0  0  0
    7.6413    6.0676    4.1851 H   0  0  0  0  0  0  0  0  0  0  0  0
    7.4835    5.3236    2.5677 H   0  0  0  0  0  0  0  0  0  0  0  0
    8.5619    4.6060    3.8026 H   0  0  0  0  0  0  0  0  0  0  0  0
    7.3592    2.6214    3.3043 H   0  0  0  0  0  0  0  0  0  0  0  0
    4.7546    2.2438    3.6843 H   0  0  0  0  0  0  0  0  0  0  0  0
    5.1213   -0.1000    3.8002 H   0  0  0  0  0  0  0  0  0  0  0  0
    5.7479   -1.1773    0.7685 H   0  0  0  0  0  0  0  0  0  0  0  0
    8.8592   -5.2227    2.8244 H   0  0  0  0  0  0  0  0  0  0  0  0
   11.8962   -3.5847    2.2160 H   0  0  0  0  0  0  0  0  0  0  0  0
   11.6442   -1.9555    2.8838 H   0  0  0  0  0  0  0  0  0  0  0  0
   12.5800   -2.5780    0.0125 H   0  0  0  0  0  0  0  0  0  0  0  0
   13.8459    0.6173    0.3432 H   0  0  0  0  0  0  0  0  0  0  0  0
   11.3395    1.4899   -0.2185 H   0  0  0  0  0  0  0  0  0  0  0  0
   10.2063    3.6403    0.2418 H   0  0  0  0  0  0  0  0  0  0  0  0
   12.3080    3.7871    3.8725 H   0  0  0  0  0  0  0  0  0  0  0  0
   13.4248   -0.6022    3.1425 H   0  0  0  0  0  0  0  0  0  0  0  0
   15.1464    0.7831    2.9740 H   0  0  0  0  0  0  0  0  0  0  0  0
   14.2791   -2.6952    2.2069 H   0  0  0  0  0  0  0  0  0  0  0  0
   15.7788   -1.4122    0.8709 H   0  0  0  0  0  0  0  0  0  0  0  0
    6.8666   -0.0877    6.9770 H   0  0  0  0  0  0  0  0  0  0  0  0
    5.0232   -2.0177    5.4869 H   0  0  0  0  0  0  0  0  0  0  0  0
    5.2864   -1.9977    7.2454 H   0  0  0  0  0  0  0  0  0  0  0  0
    6.6138   -2.3914    6.1312 H   0  0  0  0  0  0  0  0  0  0  0  0
    4.0340    0.2686    5.8609 H   0  0  0  0  0  0  0  0  0  0  0  0
    3.9242    1.5897    7.8990 H   0  0  0  0  0  0  0  0  0  0  0  0
    3.9329   -0.0310    8.0733 H   0  0  0  0  0  0  0  0  0  0  0  0
    6.0579    2.4864    6.3909 H   0  0  0  0  0  0  0  0  0  0  0  0
    4.3682    3.7752    5.6269 H   0  0  0  0  0  0  0  0  0  0  0  0
  1  2  1  0  0  0  0
  1 39  1  0  0  0  0
  1 40  1  0  0  0  0
  1 41  1  0  0  0  0
  2  3  2  0  0  0  0
  2  4  1  0  0  0  0
  4 42  1  0  0  0  0
  5  6  1  0  0  0  0
  5 37  1  0  0  0  0
  5  4  1  0  0  0  0
  5 43  1  6  0  0  0
  6  7  1  0  0  0  0
  6 32  1  0  0  0  0
  6 44  1  0  0  0  0
  7  8  1  0  0  0  0
  8  9  2  0  0  0  0
  8 10  1  0  0  0  0
  8 11  1  0  0  0  0
 10 45  1  0  0  0  0
 11 12  1  0  0  0  0
 12 13  2  0  0  0  0
 12 14  1  0  0  0  0
 12 15  1  0  0  0  0
 14 46  1  0  0  0  0
 15 16  1  0  0  0  0
 16 17  1  0  0  0  0
 16 47  1  0  0  0  0
 16 48  1  0  0  0  0
 17 18  1  0  0  0  0
 17 30  1  0  0  0  0
 17 49  1  6  0  0  0
 18 19  1  0  0  0  0
 19 20  1  0  0  0  0
 19 28  1  0  0  0  0
 19 50  1  6  0  0  0
 20 21  1  0  0  0  0
 20 26  1  0  0  0  0
 21 22  2  0  0  0  0
 21 51  1  0  0  0  0
 22 23  1  0  0  0  0
 22 52  1  0  0  0  0
 23 24  2  0  0  0  0
 23 25  1  0  0  0  0
 25 26  1  0  0  0  0
 25 53  1  0  0  0  0
 26 27  2  0  0  0  0
 28 29  1  0  0  0  0
 28 30  1  0  0  0  0
 28 54  1  1  0  0  0
 29 55  1  0  0  0  0
 30 31  1  0  0  0  0
 30 56  1  1  0  0  0
 31 57  1  0  0  0  0
 32 33  1  0  0  0  0
 33 35  1  0  0  0  0
 33 34  1  0  0  0  0
 33 58  1  1  0  0  0
 34 59  1  0  0  0  0
 34 60  1  0  0  0  0
 34 61  1  0  0  0  0
 35 36  1  0  0  0  0
 35 37  1  0  0  0  0
 35 62  1  6  0  0  0
 36 63  1  0  0  0  0
 36 64  1  0  0  0  0
 37 38  1  0  0  0  0
 37 65  1  1  0  0  0
 38 66  1  0  0  0  0
M  END
$$$$
