CHEBI:16729
 OpenBabel04242415083D

 10  9  0  0  0  0  0  0  0  0999 V2000
    2.9528    2.4138   -2.3660 O   0  0  0  0  0  0  0  0  0  0  0  0
    2.3324    1.5173   -1.8172 C   0  0  0  0  0  0  0  0  0  0  0  0
    2.9016    0.4768   -1.1944 O   0  0  0  0  0  0  0  0  0  0  0  0
    4.6316    0.4768   -1.1944 P   0  0  0  0  0  0  0  0  0  0  0  0
    4.6926   -0.7400   -0.2736 O   0  0  0  0  0  0  0  0  0  0  0  0
    4.6829   -0.0861   -2.7257 O   0  0  0  0  0  0  0  0  0  0  0  0
    6.3616    0.4768   -1.1944 O   0  0  0  0  0  0  0  0  0  0  0  0
    1.2361    1.4417   -1.7671 H   0  0  0  0  0  0  0  0  0  0  0  0
    4.7593    0.6462   -3.3659 H   0  0  0  0  0  0  0  0  0  0  0  0
    6.5614   -0.4638   -1.0019 H   0  0  0  0  0  0  0  0  0  0  0  0
  1  2  2  0  0  0  0
  2  3  1  0  0  0  0
  2  8  1  0  0  0  0
  3  4  1  0  0  0  0
  4  5  2  0  0  0  0
  4  6  1  0  0  0  0
  4  7  1  0  0  0  0
  6  9  1  0  0  0  0
  7 10  1  0  0  0  0
M  END
$$$$
