CHEBI:20794
 OpenBabel04252409383D

 37 39  0  0  1  0  0  0  0  0999 V2000
    1.1157    0.1311    0.0315 C   0  0  0  0  0  0  0  0  0  0  0  0
    2.5478   -0.1128   -0.0332 N   0  3  0  0  0  0  0  0  0  0  0  0
    3.5072    0.8244   -0.0811 C   0  0  0  0  0  0  0  0  0  0  0  0
    4.6901    0.2025   -0.1321 N   0  0  0  0  0  0  0  0  0  0  0  0
    5.9756    0.8701   -0.2433 C   0  0  2  0  0  0  0  0  0  0  0  0
    5.8641    2.1535    0.3926 O   0  0  0  0  0  0  0  0  0  0  0  0
    6.5700    3.1199   -0.4266 C   0  0  2  0  0  0  0  0  0  0  0  0
    5.5579    4.1463   -0.9490 C   0  0  0  0  0  0  0  0  0  0  0  0
    4.5423    3.5134   -1.7278 O   0  0  0  0  0  0  0  0  0  0  0  0
    7.2731    2.3363   -1.5365 C   0  0  1  0  0  0  0  0  0  0  0  0
    8.5602    1.8761   -1.0846 O   0  0  0  0  0  0  0  0  0  0  0  0
    6.3976    1.1102   -1.6975 C   0  0  1  0  0  0  0  0  0  0  0  0
    7.1067    0.0232   -2.2898 O   0  0  0  0  0  0  0  0  0  0  0  0
    4.5125   -1.1645   -0.1156 C   0  0  0  0  0  0  0  0  0  0  0  0
    5.4811   -2.1067   -0.1495 N   0  0  0  0  0  0  0  0  0  0  0  0
    5.0014   -3.3167   -0.1461 C   0  0  0  0  0  0  0  0  0  0  0  0
    5.8396   -4.3772   -0.1999 N   0  0  0  0  0  0  0  0  0  0  0  0
    3.6556   -3.6134   -0.0906 N   0  0  0  0  0  0  0  0  0  0  0  0
    2.6227   -2.6888   -0.0504 C   0  0  0  0  0  0  0  0  0  0  0  0
    1.4494   -3.0492   -0.0141 O   0  0  0  0  0  0  0  0  0  0  0  0
    3.1552   -1.3673   -0.0624 C   0  0  0  0  0  0  0  0  0  0  0  0
    0.9256    1.2072    0.0656 H   0  0  0  0  0  0  0  0  0  0  0  0
    0.7111   -0.3343    0.9342 H   0  0  0  0  0  0  0  0  0  0  0  0
    0.6380   -0.2921   -0.8560 H   0  0  0  0  0  0  0  0  0  0  0  0
    3.3464    1.8961   -0.0778 H   0  0  0  0  0  0  0  0  0  0  0  0
    6.7244    0.2869    0.3061 H   0  0  0  0  0  0  0  0  0  0  0  0
    7.2953    3.6266    0.2195 H   0  0  0  0  0  0  0  0  0  0  0  0
    6.0591    4.8967   -1.5686 H   0  0  0  0  0  0  0  0  0  0  0  0
    5.0603    4.6449   -0.1113 H   0  0  0  0  0  0  0  0  0  0  0  0
    4.0379    4.2326   -2.1572 H   0  0  0  0  0  0  0  0  0  0  0  0
    7.4257    2.8896   -2.4674 H   0  0  0  0  0  0  0  0  0  0  0  0
    9.1748    2.6350   -1.1035 H   0  0  0  0  0  0  0  0  0  0  0  0
    5.5261    1.3198   -2.3247 H   0  0  0  0  0  0  0  0  0  0  0  0
    8.0336    0.1053   -1.9805 H   0  0  0  0  0  0  0  0  0  0  0  0
    6.8235   -4.1543   -0.0718 H   0  0  0  0  0  0  0  0  0  0  0  0
    5.5699   -5.2605    0.2152 H   0  0  0  0  0  0  0  0  0  0  0  0
    3.3642   -4.5802   -0.1287 H   0  0  0  0  0  0  0  0  0  0  0  0
  1  2  1  0  0  0  0
  1 22  1  0  0  0  0
  1 23  1  0  0  0  0
  1 24  1  0  0  0  0
  2  3  2  0  0  0  0
  2 21  1  0  0  0  0
  3  4  1  0  0  0  0
  3 25  1  0  0  0  0
  4  5  1  0  0  0  0
  4 14  1  0  0  0  0
  5  6  1  0  0  0  0
  5 12  1  0  0  0  0
  5 26  1  1  0  0  0
  6  7  1  0  0  0  0
  7  8  1  0  0  0  0
  7 10  1  0  0  0  0
  7 27  1  1  0  0  0
  8  9  1  0  0  0  0
  8 28  1  0  0  0  0
  8 29  1  0  0  0  0
  9 30  1  0  0  0  0
 10 11  1  0  0  0  0
 10 12  1  0  0  0  0
 10 31  1  6  0  0  0
 11 32  1  0  0  0  0
 12 13  1  0  0  0  0
 12 33  1  6  0  0  0
 13 34  1  0  0  0  0
 14 15  1  0  0  0  0
 14 21  2  0  0  0  0
 15 16  2  0  0  0  0
 16 17  1  0  0  0  0
 16 18  1  0  0  0  0
 17 35  1  0  0  0  0
 17 36  1  0  0  0  0
 18 19  1  0  0  0  0
 18 37  1  0  0  0  0
 19 20  2  0  0  0  0
 19 21  1  0  0  0  0
M  CHG  1   2   1
M  END
$$$$
