CHEBI:18311
 OpenBabel04252409223D

 20 21  0  0  0  0  0  0  0  0999 V2000
    0.9153   -0.0310   -0.5806 O   0  0  0  0  0  0  0  0  0  0  0  0
    2.0894    0.1227   -0.3038 C   0  0  0  0  0  0  0  0  0  0  0  0
    2.7802   -0.6574    0.5544 O   0  0  0  0  0  0  0  0  0  0  0  0
    2.9315    1.1978   -0.8578 C   0  0  0  0  0  0  0  0  0  0  0  0
    4.0069    0.8211   -1.6610 C   0  0  0  0  0  0  0  0  0  0  0  0
    4.7976    1.8269   -2.1656 C   0  0  0  0  0  0  0  0  0  0  0  0
    4.5869    3.1352   -1.9151 N   0  0  0  0  0  0  0  0  0  0  0  0
    3.5364    3.4926   -1.1537 C   0  0  0  0  0  0  0  0  0  0  0  0
    3.3199    4.8430   -0.9125 C   0  0  0  0  0  0  0  0  0  0  0  0
    2.2536    5.2933   -0.1303 C   0  0  0  0  0  0  0  0  0  0  0  0
    1.3754    4.3763    0.4292 C   0  0  0  0  0  0  0  0  0  0  0  0
    1.5704    3.0150    0.2049 C   0  0  0  0  0  0  0  0  0  0  0  0
    2.6515    2.5544   -0.5877 C   0  0  0  0  0  0  0  0  0  0  0  0
    3.6831   -0.3430    0.7548 H   0  0  0  0  0  0  0  0  0  0  0  0
    4.2086   -0.2174   -1.9000 H   0  0  0  0  0  0  0  0  0  0  0  0
    5.6486    1.6102   -2.8058 H   0  0  0  0  0  0  0  0  0  0  0  0
    4.0019    5.5691   -1.3500 H   0  0  0  0  0  0  0  0  0  0  0  0
    2.1125    6.3586    0.0336 H   0  0  0  0  0  0  0  0  0  0  0  0
    0.5379    4.7160    1.0336 H   0  0  0  0  0  0  0  0  0  0  0  0
    0.8623    2.3135    0.6447 H   0  0  0  0  0  0  0  0  0  0  0  0
  1  2  2  0  0  0  0
  2  3  1  0  0  0  0
  2  4  1  0  0  0  0
  3 14  1  0  0  0  0
  4  5  1  0  0  0  0
  4 13  2  0  0  0  0
  5  6  2  0  0  0  0
  5 15  1  0  0  0  0
  6  7  1  0  0  0  0
  6 16  1  0  0  0  0
  7  8  2  0  0  0  0
  8  9  1  0  0  0  0
  8 13  1  0  0  0  0
  9 10  2  0  0  0  0
  9 17  1  0  0  0  0
 10 11  1  0  0  0  0
 10 18  1  0  0  0  0
 11 12  2  0  0  0  0
 11 19  1  0  0  0  0
 12 13  1  0  0  0  0
 12 20  1  0  0  0  0
M  END
$$$$
