CHEBI:15411
 OpenBabel04242411503D

 52 53  0  0  1  0  0  0  0  0999 V2000
    2.1439   -4.4393   -5.1363 C   0  0  0  0  0  0  0  0  0  0  0  0
    2.4012   -4.2850   -3.6272 C   0  0  0  0  0  0  0  0  0  0  0  0
    3.8922   -4.5440   -3.3788 C   0  0  0  0  0  0  0  0  0  0  0  0
    1.4676   -5.2202   -2.7944 C   0  0  2  0  0  0  0  0  0  0  0  0
   -0.0233   -4.7902   -2.8967 C   0  0  0  0  0  0  0  0  0  0  0  0
   -0.5821   -4.0921   -1.6510 C   0  0  0  0  0  0  0  0  0  0  0  0
    0.4682   -3.2395   -0.9405 C   0  0  1  0  0  0  0  0  0  0  0  0
   -0.1296   -2.5394    0.2796 C   0  0  0  0  0  0  0  0  0  0  0  0
    1.7171   -4.0527   -0.5473 C   0  0  0  0  0  0  0  0  0  0  0  0
    1.8639   -5.3831   -1.3051 C   0  0  1  0  0  0  0  0  0  0  0  0
    1.0082   -6.4159   -0.7850 O   0  0  0  0  0  0  0  0  0  0  0  0
    1.3100   -6.8848    0.5321 C   0  0  2  0  0  0  0  0  0  0  0  0
    2.6564   -7.3423    0.6400 O   0  0  0  0  0  0  0  0  0  0  0  0
    2.9529   -7.8375    1.9544 C   0  0  2  0  0  0  0  0  0  0  0  0
    4.4440   -8.1893    2.0406 C   0  0  0  0  0  0  0  0  0  0  0  0
    4.8422   -8.4974    3.3726 O   0  0  0  0  0  0  0  0  0  0  0  0
    2.0752   -9.0612    2.2689 C   0  0  1  0  0  0  0  0  0  0  0  0
    2.3365   -9.5721    3.5809 O   0  0  0  0  0  0  0  0  0  0  0  0
    0.6025   -8.6668    2.1582 C   0  0  2  0  0  0  0  0  0  0  0  0
   -0.2103   -9.8345    2.3526 O   0  0  0  0  0  0  0  0  0  0  0  0
    0.3234   -8.0415    0.7956 C   0  0  1  0  0  0  0  0  0  0  0  0
   -1.0400   -7.5889    0.7638 O   0  0  0  0  0  0  0  0  0  0  0  0
    2.7993   -3.7744   -5.7099 H   0  0  0  0  0  0  0  0  0  0  0  0
    1.1171   -4.1866   -5.4118 H   0  0  0  0  0  0  0  0  0  0  0  0
    2.3379   -5.4661   -5.4655 H   0  0  0  0  0  0  0  0  0  0  0  0
    2.1974   -3.2408   -3.3621 H   0  0  0  0  0  0  0  0  0  0  0  0
    4.1459   -5.5954   -3.5505 H   0  0  0  0  0  0  0  0  0  0  0  0
    4.1835   -4.2796   -2.3585 H   0  0  0  0  0  0  0  0  0  0  0  0
    4.5094   -3.9347   -4.0486 H   0  0  0  0  0  0  0  0  0  0  0  0
    1.5310   -6.2182   -3.2533 H   0  0  0  0  0  0  0  0  0  0  0  0
   -0.6380   -5.6792   -3.0899 H   0  0  0  0  0  0  0  0  0  0  0  0
   -0.1856   -4.1310   -3.7546 H   0  0  0  0  0  0  0  0  0  0  0  0
   -0.9839   -4.8412   -0.9576 H   0  0  0  0  0  0  0  0  0  0  0  0
   -1.4386   -3.4729   -1.9454 H   0  0  0  0  0  0  0  0  0  0  0  0
    0.7838   -2.4520   -1.6379 H   0  0  0  0  0  0  0  0  0  0  0  0
   -0.4855   -3.2654    1.0187 H   0  0  0  0  0  0  0  0  0  0  0  0
   -0.9765   -1.9086   -0.0100 H   0  0  0  0  0  0  0  0  0  0  0  0
    0.6159   -1.8992    0.7630 H   0  0  0  0  0  0  0  0  0  0  0  0
    1.7344   -4.2211    0.5332 H   0  0  0  0  0  0  0  0  0  0  0  0
    2.5950   -3.4268   -0.7535 H   0  0  0  0  0  0  0  0  0  0  0  0
    2.8949   -5.7428   -1.2305 H   0  0  0  0  0  0  0  0  0  0  0  0
    1.1205   -6.0774    1.2479 H   0  0  0  0  0  0  0  0  0  0  0  0
    2.7584   -7.0483    2.6940 H   0  0  0  0  0  0  0  0  0  0  0  0
    4.6853   -9.0401    1.3941 H   0  0  0  0  0  0  0  0  0  0  0  0
    5.0510   -7.3464    1.6933 H   0  0  0  0  0  0  0  0  0  0  0  0
    4.1499   -9.0838    3.7490 H   0  0  0  0  0  0  0  0  0  0  0  0
    2.2868   -9.8726    1.5609 H   0  0  0  0  0  0  0  0  0  0  0  0
    1.6032  -10.1999    3.7555 H   0  0  0  0  0  0  0  0  0  0  0  0
    0.3277   -7.9775    2.9663 H   0  0  0  0  0  0  0  0  0  0  0  0
   -1.1140   -9.5620    2.0904 H   0  0  0  0  0  0  0  0  0  0  0  0
    0.4125   -8.8043    0.0118 H   0  0  0  0  0  0  0  0  0  0  0  0
   -1.1229   -7.0971   -0.0783 H   0  0  0  0  0  0  0  0  0  0  0  0
  1  2  1  0  0  0  0
  1 23  1  0  0  0  0
  1 24  1  0  0  0  0
  1 25  1  0  0  0  0
  2  3  1  0  0  0  0
  2 26  1  0  0  0  0
  3 27  1  0  0  0  0
  3 28  1  0  0  0  0
  3 29  1  0  0  0  0
  4  5  1  0  0  0  0
  4 10  1  0  0  0  0
  4  2  1  0  0  0  0
  4 30  1  6  0  0  0
  5  6  1  0  0  0  0
  5 31  1  0  0  0  0
  5 32  1  0  0  0  0
  6  7  1  0  0  0  0
  6 33  1  0  0  0  0
  6 34  1  0  0  0  0
  7  8  1  0  0  0  0
  7  9  1  0  0  0  0
  7 35  1  6  0  0  0
  8 36  1  0  0  0  0
  8 37  1  0  0  0  0
  8 38  1  0  0  0  0
  9 10  1  0  0  0  0
  9 39  1  0  0  0  0
  9 40  1  0  0  0  0
 10 11  1  0  0  0  0
 10 41  1  1  0  0  0
 12 13  1  0  0  0  0
 12 21  1  0  0  0  0
 12 11  1  0  0  0  0
 12 42  1  1  0  0  0
 13 14  1  0  0  0  0
 14 17  1  0  0  0  0
 14 15  1  0  0  0  0
 14 43  1  1  0  0  0
 15 16  1  0  0  0  0
 15 44  1  0  0  0  0
 15 45  1  0  0  0  0
 16 46  1  0  0  0  0
 17 18  1  0  0  0  0
 17 19  1  0  0  0  0
 17 47  1  6  0  0  0
 18 48  1  0  0  0  0
 19 20  1  0  0  0  0
 19 21  1  0  0  0  0
 19 49  1  1  0  0  0
 20 50  1  0  0  0  0
 21 22  1  0  0  0  0
 21 51  1  6  0  0  0
 22 52  1  0  0  0  0
M  END
$$$$
