CHEBI:18251
 OpenBabel04252409163D

 60 62  0  0  1  0  0  0  0  0999 V2000
    7.7690    5.9638   10.7198 O   0  0  0  0  0  0  0  0  0  0  0  0
    8.0922    6.6767    9.7775 C   0  0  0  0  0  0  0  0  0  0  0  0
    7.5256    6.4715    8.4382 C   0  0  0  0  0  0  0  0  0  0  0  0
    7.9204    7.2656    7.4405 C   0  0  0  0  0  0  0  0  0  0  0  0
    8.8531    8.2727    7.6215 N   0  0  0  0  0  0  0  0  0  0  0  0
    9.2148    9.1886    6.5256 C   0  0  2  0  0  0  0  0  0  0  0  0
    8.5589    8.7950    5.3010 O   0  0  0  0  0  0  0  0  0  0  0  0
    9.5089    8.8809    4.2133 C   0  0  2  0  0  0  0  0  0  0  0  0
    9.8312    7.4595    3.7480 C   0  0  0  0  0  0  0  0  0  0  0  0
   10.7235    7.4867    2.6490 O   0  0  0  0  0  0  0  0  0  0  0  0
   11.3045    6.0967    2.1016 P   0  0  0  0  0  0  0  0  0  0  0  0
   12.3079    6.1746    1.0029 O   0  0  0  0  0  0  0  0  0  0  0  0
   12.0259    5.4943    3.4080 O   0  0  0  0  0  0  0  0  0  0  0  0
   10.0889    5.0988    1.9085 O   0  0  0  0  0  0  0  0  0  0  0  0
    9.1070    5.1435    0.6608 P   0  0  0  0  0  0  0  0  0  0  0  0
    9.3891    6.1894   -0.3588 O   0  0  0  0  0  0  0  0  0  0  0  0
    9.2002    3.6224    0.1663 O   0  0  0  0  0  0  0  0  0  0  0  0
    7.6457    5.1943    1.3238 O   0  0  0  0  0  0  0  0  0  0  0  0
    6.5620    5.4524    0.4465 C   0  0  0  0  0  0  0  0  0  0  0  0
    5.3713    5.7079    1.2246 O   0  0  0  0  0  0  0  0  0  0  0  0
    4.3150    4.8458    0.7356 C   0  0  1  0  0  0  0  0  0  0  0  0
    2.9762    5.6074    0.7508 C   0  0  2  0  0  0  0  0  0  0  0  0
    2.9886    6.6564   -0.2325 O   0  0  0  0  0  0  0  0  0  0  0  0
    1.7778    4.7058    0.4384 C   0  0  0  0  0  0  0  0  0  0  0  0
    1.8344    4.2615   -0.9196 O   0  0  0  0  0  0  0  0  0  0  0  0
    4.7656    4.3514   -0.6343 C   0  0  2  0  0  0  0  0  0  0  0  0
    4.2308    3.0778   -0.9851 O   0  0  0  0  0  0  0  0  0  0  0  0
    6.2579    4.2380   -0.4296 C   0  0  1  0  0  0  0  0  0  0  0  0
    6.9533    4.2547   -1.6689 O   0  0  0  0  0  0  0  0  0  0  0  0
   10.7251    9.6247    4.7518 C   0  0  1  0  0  0  0  0  0  0  0  0
   10.5144   11.0429    4.6526 O   0  0  0  0  0  0  0  0  0  0  0  0
   10.7276    9.2360    6.2183 C   0  0  1  0  0  0  0  0  0  0  0  0
   11.4718   10.2037    6.9618 O   0  0  0  0  0  0  0  0  0  0  0  0
    9.3874    8.5319    8.8786 C   0  0  0  0  0  0  0  0  0  0  0  0
   10.1927    9.4340    9.1047 O   0  0  0  0  0  0  0  0  0  0  0  0
    8.9826    7.7026    9.8894 N   0  0  0  0  0  0  0  0  0  0  0  0
    6.7940    5.6841    8.3167 H   0  0  0  0  0  0  0  0  0  0  0  0
    7.4954    7.1362    6.4492 H   0  0  0  0  0  0  0  0  0  0  0  0
    8.8472   10.1845    6.8044 H   0  0  0  0  0  0  0  0  0  0  0  0
    9.0396    9.4397    3.3959 H   0  0  0  0  0  0  0  0  0  0  0  0
    8.9056    6.9543    3.4507 H   0  0  0  0  0  0  0  0  0  0  0  0
   10.2588    6.8748    4.5699 H   0  0  0  0  0  0  0  0  0  0  0  0
   12.9273    5.2114    3.1556 H   0  0  0  0  0  0  0  0  0  0  0  0
    9.0327    2.9858    0.8819 H   0  0  0  0  0  0  0  0  0  0  0  0
    6.7682    6.3519   -0.1444 H   0  0  0  0  0  0  0  0  0  0  0  0
    4.2452    4.0065    1.4399 H   0  0  0  0  0  0  0  0  0  0  0  0
    2.8454    6.0729    1.7351 H   0  0  0  0  0  0  0  0  0  0  0  0
    2.5967    7.4465    0.1824 H   0  0  0  0  0  0  0  0  0  0  0  0
    1.7500    3.8301    1.0931 H   0  0  0  0  0  0  0  0  0  0  0  0
    0.8412    5.2605    0.5544 H   0  0  0  0  0  0  0  0  0  0  0  0
    1.9103    5.0829   -1.4510 H   0  0  0  0  0  0  0  0  0  0  0  0
    4.5479    5.0552   -1.4455 H   0  0  0  0  0  0  0  0  0  0  0  0
    3.2679    3.2146   -1.1336 H   0  0  0  0  0  0  0  0  0  0  0  0
    6.5186    3.3040    0.0829 H   0  0  0  0  0  0  0  0  0  0  0  0
    6.6118    3.5002   -2.1847 H   0  0  0  0  0  0  0  0  0  0  0  0
   11.6642    9.4003    4.2389 H   0  0  0  0  0  0  0  0  0  0  0  0
   11.1165   11.4343    5.3202 H   0  0  0  0  0  0  0  0  0  0  0  0
   11.1879    8.2510    6.3579 H   0  0  0  0  0  0  0  0  0  0  0  0
   11.2351   10.0775    7.9089 H   0  0  0  0  0  0  0  0  0  0  0  0
    9.3706    7.8722   10.8045 H   0  0  0  0  0  0  0  0  0  0  0  0
  1  2  2  0  0  0  0
  2  3  1  0  0  0  0
  2 36  1  0  0  0  0
  3  4  2  0  0  0  0
  3 37  1  0  0  0  0
  4  5  1  0  0  0  0
  4 38  1  0  0  0  0
  5  6  1  0  0  0  0
  5 34  1  0  0  0  0
  6  7  1  0  0  0  0
  6 32  1  0  0  0  0
  6 39  1  1  0  0  0
  7  8  1  0  0  0  0
  8  9  1  0  0  0  0
  8 30  1  0  0  0  0
  8 40  1  6  0  0  0
  9 10  1  0  0  0  0
  9 41  1  0  0  0  0
  9 42  1  0  0  0  0
 10 11  1  0  0  0  0
 11 12  2  0  0  0  0
 11 13  1  0  0  0  0
 11 14  1  0  0  0  0
 13 43  1  0  0  0  0
 14 15  1  0  0  0  0
 15 16  2  0  0  0  0
 15 17  1  0  0  0  0
 15 18  1  0  0  0  0
 17 44  1  0  0  0  0
 18 19  1  0  0  0  0
 19 20  1  0  0  0  0
 19 28  1  0  0  0  0
 19 45  1  0  0  0  0
 20 21  1  0  0  0  0
 21 26  1  0  0  0  0
 21 22  1  0  0  0  0
 21 46  1  1  0  0  0
 22 24  1  0  0  0  0
 22 23  1  0  0  0  0
 22 47  1  6  0  0  0
 23 48  1  0  0  0  0
 24 25  1  0  0  0  0
 24 49  1  0  0  0  0
 24 50  1  0  0  0  0
 25 51  1  0  0  0  0
 26 27  1  0  0  0  0
 26 28  1  0  0  0  0
 26 52  1  6  0  0  0
 27 53  1  0  0  0  0
 28 29  1  0  0  0  0
 28 54  1  1  0  0  0
 29 55  1  0  0  0  0
 30 31  1  0  0  0  0
 30 32  1  0  0  0  0
 30 56  1  6  0  0  0
 31 57  1  0  0  0  0
 32 33  1  0  0  0  0
 32 58  1  1  0  0  0
 33 59  1  0  0  0  0
 34 35  2  0  0  0  0
 34 36  1  0  0  0  0
 36 60  1  0  0  0  0
M  END
$$$$
