CHEBI:18162
 OpenBabel04242423393D

133133  0  0  0  0  0  0  0  0999 V2000
    9.9146    0.3309   26.7022 C   0  0  0  0  0  0  0  0  0  0  0  0
   10.0394   -0.3777   25.3793 C   0  0  0  0  0  0  0  0  0  0  0  0
    8.7486   -0.5069   24.6182 C   0  0  0  0  0  0  0  0  0  0  0  0
   11.2337   -0.8267   24.9462 C   0  0  0  0  0  0  0  0  0  0  0  0
   11.5123   -1.5754   23.6700 C   0  0  0  0  0  0  0  0  0  0  0  0
   12.0037   -0.6329   22.5681 C   0  0  0  0  0  0  0  0  0  0  0  0
   12.2290   -1.3481   21.2477 C   0  0  0  0  0  0  0  0  0  0  0  0
   11.0101   -1.4446   20.3704 C   0  0  0  0  0  0  0  0  0  0  0  0
   13.4564   -1.8074   20.9314 C   0  0  0  0  0  0  0  0  0  0  0  0
   13.9047   -2.4707   19.6544 C   0  0  0  0  0  0  0  0  0  0  0  0
   15.1013   -1.7197   19.0589 C   0  0  0  0  0  0  0  0  0  0  0  0
   15.4270   -2.1326   17.6371 C   0  0  0  0  0  0  0  0  0  0  0  0
   14.6056   -1.4717   16.5622 C   0  0  0  0  0  0  0  0  0  0  0  0
   16.4264   -3.0012   17.3843 C   0  0  0  0  0  0  0  0  0  0  0  0
   16.9509   -3.4086   16.0334 C   0  0  0  0  0  0  0  0  0  0  0  0
   16.4442   -4.7803   15.5639 C   0  0  0  0  0  0  0  0  0  0  0  0
   17.0034   -5.1522   14.1988 C   0  0  0  0  0  0  0  0  0  0  0  0
   16.0138   -5.2868   13.0744 C   0  0  0  0  0  0  0  0  0  0  0  0
   18.3290   -5.3365   14.0322 C   0  0  0  0  0  0  0  0  0  0  0  0
   19.0341   -5.6669   12.7401 C   0  0  0  0  0  0  0  0  0  0  0  0
   20.5471   -5.8040   12.9675 C   0  0  0  0  0  0  0  0  0  0  0  0
   21.3487   -6.0247   11.6987 C   0  0  0  0  0  0  0  0  0  0  0  0
   21.6968   -4.7765   10.9358 C   0  0  0  0  0  0  0  0  0  0  0  0
   21.7783   -7.2624   11.3846 C   0  0  0  0  0  0  0  0  0  0  0  0
   22.6859   -7.6766   10.2542 C   0  0  0  0  0  0  0  0  0  0  0  0
   24.1551   -7.8031   10.7020 C   0  0  0  0  0  0  0  0  0  0  0  0
   24.4726   -8.7816   11.8263 C   0  0  0  0  0  0  0  0  0  0  0  0
   25.6404   -8.3599   12.6845 C   0  0  0  0  0  0  0  0  0  0  0  0
   23.7713   -9.9172   12.0205 C   0  0  0  0  0  0  0  0  0  0  0  0
   23.9355  -10.8996   13.1453 C   0  0  0  0  0  0  0  0  0  0  0  0
   24.8231  -12.0862   12.7486 C   0  0  0  0  0  0  0  0  0  0  0  0
   25.0388  -13.1483   13.8190 C   0  0  0  0  0  0  0  0  0  0  0  0
   25.3015  -14.5189   13.2534 C   0  0  0  0  0  0  0  0  0  0  0  0
   25.0035  -12.8610   15.1356 C   0  0  0  0  0  0  0  0  0  0  0  0
   25.1505  -13.7743   16.3161 C   0  0  0  0  0  0  0  0  0  0  0  0
   26.5188  -14.4210   16.5552 C   0  0  0  0  0  0  0  0  0  0  0  0
   27.7720  -13.5792   16.7396 C   0  0  0  0  0  0  0  0  0  0  0  0
   27.6612  -12.1221   17.0755 C   0  0  0  0  0  0  0  0  0  0  0  0
   28.9498  -14.2316   16.6628 C   0  0  0  0  0  0  0  0  0  0  0  0
   30.3047  -13.7473   17.1016 C   0  0  0  0  0  0  0  0  0  0  0  0
   31.3598  -14.8709   17.2225 C   0  0  0  0  0  0  0  0  0  0  0  0
   31.1624  -15.9145   18.3206 C   0  0  0  0  0  0  0  0  0  0  0  0
   32.1877  -15.8986   19.4226 C   0  0  0  0  0  0  0  0  0  0  0  0
   30.2123  -16.8651   18.2133 C   0  0  0  0  0  0  0  0  0  0  0  0
   29.9058  -18.0213   19.1158 C   0  0  0  0  0  0  0  0  0  0  0  0
   30.5665  -19.1707   18.5761 O   0  0  0  0  0  0  0  0  0  0  0  0
   29.9783  -19.7383   17.4969 C   0  0  0  0  0  0  0  0  0  0  0  0
   28.8506  -19.5131   17.0779 O   0  0  0  0  0  0  0  0  0  0  0  0
   30.9337  -20.6601   16.8334 C   0  0  0  0  0  0  0  0  0  0  0  0
   32.3032  -20.6448   17.1366 C   0  0  0  0  0  0  0  0  0  0  0  0
   33.1748  -21.5124   16.4790 C   0  0  0  0  0  0  0  0  0  0  0  0
   32.6798  -22.3886   15.5204 C   0  0  0  0  0  0  0  0  0  0  0  0
   33.5674  -23.2270   14.9154 O   0  0  0  0  0  0  0  0  0  0  0  0
   31.3267  -22.4037   15.1929 C   0  0  0  0  0  0  0  0  0  0  0  0
   30.4521  -21.5326   15.8478 C   0  0  0  0  0  0  0  0  0  0  0  0
    9.2416   -0.2227   27.3650 H   0  0  0  0  0  0  0  0  0  0  0  0
    9.5103    1.3381   26.5574 H   0  0  0  0  0  0  0  0  0  0  0  0
   10.8781    0.4310   27.2130 H   0  0  0  0  0  0  0  0  0  0  0  0
    8.0656   -1.1797   25.1461 H   0  0  0  0  0  0  0  0  0  0  0  0
    8.8821   -0.8888   23.6031 H   0  0  0  0  0  0  0  0  0  0  0  0
    8.2669    0.4725   24.5259 H   0  0  0  0  0  0  0  0  0  0  0  0
   12.1125   -0.6592   25.5687 H   0  0  0  0  0  0  0  0  0  0  0  0
   10.6315   -2.1376   23.3424 H   0  0  0  0  0  0  0  0  0  0  0  0
   12.2802   -2.3312   23.8806 H   0  0  0  0  0  0  0  0  0  0  0  0
   12.9320   -0.1431   22.8924 H   0  0  0  0  0  0  0  0  0  0  0  0
   11.2835    0.1820   22.4145 H   0  0  0  0  0  0  0  0  0  0  0  0
   11.1744   -2.0116   19.4525 H   0  0  0  0  0  0  0  0  0  0  0  0
   10.6741   -0.4427   20.0832 H   0  0  0  0  0  0  0  0  0  0  0  0
   10.1947   -1.9394   20.9081 H   0  0  0  0  0  0  0  0  0  0  0  0
   14.2510   -1.6847   21.6690 H   0  0  0  0  0  0  0  0  0  0  0  0
   13.0993   -2.5308   18.9187 H   0  0  0  0  0  0  0  0  0  0  0  0
   14.2001   -3.5020   19.8836 H   0  0  0  0  0  0  0  0  0  0  0  0
   15.9770   -1.8722   19.7049 H   0  0  0  0  0  0  0  0  0  0  0  0
   14.9199   -0.6364   19.0760 H   0  0  0  0  0  0  0  0  0  0  0  0
   14.1394   -0.5509   16.9282 H   0  0  0  0  0  0  0  0  0  0  0  0
   13.8076   -2.1433   16.2309 H   0  0  0  0  0  0  0  0  0  0  0  0
   15.2115   -1.1847   15.6984 H   0  0  0  0  0  0  0  0  0  0  0  0
   16.9604   -3.4415   18.2265 H   0  0  0  0  0  0  0  0  0  0  0  0
   18.0457   -3.4193   16.1121 H   0  0  0  0  0  0  0  0  0  0  0  0
   16.7232   -2.6531   15.2743 H   0  0  0  0  0  0  0  0  0  0  0  0
   15.3473   -4.7711   15.5318 H   0  0  0  0  0  0  0  0  0  0  0  0
   16.7166   -5.5583   16.2887 H   0  0  0  0  0  0  0  0  0  0  0  0
   15.0899   -4.7387   13.2860 H   0  0  0  0  0  0  0  0  0  0  0  0
   15.7556   -6.3400   12.9239 H   0  0  0  0  0  0  0  0  0  0  0  0
   16.4091   -4.8833   12.1369 H   0  0  0  0  0  0  0  0  0  0  0  0
   18.9708   -5.2349   14.9068 H   0  0  0  0  0  0  0  0  0  0  0  0
   18.8412   -4.8725   12.0102 H   0  0  0  0  0  0  0  0  0  0  0  0
   18.6397   -6.6066   12.3348 H   0  0  0  0  0  0  0  0  0  0  0  0
   20.7262   -6.6292   13.6710 H   0  0  0  0  0  0  0  0  0  0  0  0
   20.9348   -4.9073   13.4701 H   0  0  0  0  0  0  0  0  0  0  0  0
   22.1773   -4.9754    9.9756 H   0  0  0  0  0  0  0  0  0  0  0  0
   22.3820   -4.1590   11.5264 H   0  0  0  0  0  0  0  0  0  0  0  0
   20.7969   -4.1897   10.7278 H   0  0  0  0  0  0  0  0  0  0  0  0
   21.4830   -8.0854   12.0362 H   0  0  0  0  0  0  0  0  0  0  0  0
   22.6331   -6.9652    9.4240 H   0  0  0  0  0  0  0  0  0  0  0  0
   22.3251   -8.6246    9.8384 H   0  0  0  0  0  0  0  0  0  0  0  0
   24.4851   -6.8009   11.0092 H   0  0  0  0  0  0  0  0  0  0  0  0
   24.7722   -8.0721    9.8356 H   0  0  0  0  0  0  0  0  0  0  0  0
   25.4709   -7.3579   13.0928 H   0  0  0  0  0  0  0  0  0  0  0  0
   26.5548   -8.3392   12.0824 H   0  0  0  0  0  0  0  0  0  0  0  0
   25.8284   -9.0234   13.5315 H   0  0  0  0  0  0  0  0  0  0  0  0
   22.9723  -10.1779   11.3296 H   0  0  0  0  0  0  0  0  0  0  0  0
   22.9386  -11.2654   13.4249 H   0  0  0  0  0  0  0  0  0  0  0  0
   24.3163  -10.3850   14.0310 H   0  0  0  0  0  0  0  0  0  0  0  0
   25.8090  -11.7269   12.4255 H   0  0  0  0  0  0  0  0  0  0  0  0
   24.3651  -12.5646   11.8719 H   0  0  0  0  0  0  0  0  0  0  0  0
   25.5855  -15.2557   14.0044 H   0  0  0  0  0  0  0  0  0  0  0  0
   26.1127  -14.4723   12.5184 H   0  0  0  0  0  0  0  0  0  0  0  0
   24.4041  -14.8969   12.7532 H   0  0  0  0  0  0  0  0  0  0  0  0
   24.8192  -11.8347   15.4440 H   0  0  0  0  0  0  0  0  0  0  0  0
   24.3938  -14.5662   16.2404 H   0  0  0  0  0  0  0  0  0  0  0  0
   24.8752  -13.2052   17.2146 H   0  0  0  0  0  0  0  0  0  0  0  0
   26.7024  -15.1615   15.7691 H   0  0  0  0  0  0  0  0  0  0  0  0
   26.4113  -15.0060   17.4811 H   0  0  0  0  0  0  0  0  0  0  0  0
   28.6373  -11.6251   17.0772 H   0  0  0  0  0  0  0  0  0  0  0  0
   27.2013  -11.9771   18.0555 H   0  0  0  0  0  0  0  0  0  0  0  0
   27.0689  -11.5940   16.3231 H   0  0  0  0  0  0  0  0  0  0  0  0
   28.9140  -15.2591   16.3141 H   0  0  0  0  0  0  0  0  0  0  0  0
   30.2222  -13.2342   18.0676 H   0  0  0  0  0  0  0  0  0  0  0  0
   30.6685  -13.0218   16.3647 H   0  0  0  0  0  0  0  0  0  0  0  0
   32.3336  -14.3863   17.3738 H   0  0  0  0  0  0  0  0  0  0  0  0
   31.4478  -15.3919   16.2593 H   0  0  0  0  0  0  0  0  0  0  0  0
   33.1965  -15.8420   18.9984 H   0  0  0  0  0  0  0  0  0  0  0  0
   32.1670  -16.8024   20.0381 H   0  0  0  0  0  0  0  0  0  0  0  0
   32.0341  -15.0360   20.0766 H   0  0  0  0  0  0  0  0  0  0  0  0
   29.5691  -16.8702   17.3388 H   0  0  0  0  0  0  0  0  0  0  0  0
   28.8239  -18.1832   19.1967 H   0  0  0  0  0  0  0  0  0  0  0  0
   30.2732  -17.8669   20.1336 H   0  0  0  0  0  0  0  0  0  0  0  0
   32.7063  -19.9546   17.8737 H   0  0  0  0  0  0  0  0  0  0  0  0
   34.2355  -21.5022   16.7137 H   0  0  0  0  0  0  0  0  0  0  0  0
   33.0831  -23.8062   14.3045 H   0  0  0  0  0  0  0  0  0  0  0  0
   30.9374  -23.0765   14.4352 H   0  0  0  0  0  0  0  0  0  0  0  0
   29.3951  -21.5337   15.5872 H   0  0  0  0  0  0  0  0  0  0  0  0
  1  2  1  0  0  0  0
  1 56  1  0  0  0  0
  1 57  1  0  0  0  0
  1 58  1  0  0  0  0
  2  3  1  0  0  0  0
  2  4  2  0  0  0  0
  3 59  1  0  0  0  0
  3 60  1  0  0  0  0
  3 61  1  0  0  0  0
  4  5  1  0  0  0  0
  4 62  1  0  0  0  0
  5  6  1  0  0  0  0
  5 63  1  0  0  0  0
  5 64  1  0  0  0  0
  6  7  1  0  0  0  0
  6 65  1  0  0  0  0
  6 66  1  0  0  0  0
  7  8  1  0  0  0  0
  7  9  2  0  0  0  0
  8 67  1  0  0  0  0
  8 68  1  0  0  0  0
  8 69  1  0  0  0  0
  9 10  1  0  0  0  0
  9 70  1  0  0  0  0
 10 11  1  0  0  0  0
 10 71  1  0  0  0  0
 10 72  1  0  0  0  0
 11 12  1  0  0  0  0
 11 73  1  0  0  0  0
 11 74  1  0  0  0  0
 12 13  1  0  0  0  0
 12 14  2  0  0  0  0
 13 75  1  0  0  0  0
 13 76  1  0  0  0  0
 13 77  1  0  0  0  0
 14 15  1  0  0  0  0
 14 78  1  0  0  0  0
 15 16  1  0  0  0  0
 15 79  1  0  0  0  0
 15 80  1  0  0  0  0
 16 17  1  0  0  0  0
 16 81  1  0  0  0  0
 16 82  1  0  0  0  0
 17 18  1  0  0  0  0
 17 19  2  0  0  0  0
 18 83  1  0  0  0  0
 18 84  1  0  0  0  0
 18 85  1  0  0  0  0
 19 20  1  0  0  0  0
 19 86  1  0  0  0  0
 20 21  1  0  0  0  0
 20 87  1  0  0  0  0
 20 88  1  0  0  0  0
 21 22  1  0  0  0  0
 21 89  1  0  0  0  0
 21 90  1  0  0  0  0
 22 23  1  0  0  0  0
 22 24  2  0  0  0  0
 23 91  1  0  0  0  0
 23 92  1  0  0  0  0
 23 93  1  0  0  0  0
 24 25  1  0  0  0  0
 24 94  1  0  0  0  0
 25 26  1  0  0  0  0
 25 95  1  0  0  0  0
 25 96  1  0  0  0  0
 26 27  1  0  0  0  0
 26 97  1  0  0  0  0
 26 98  1  0  0  0  0
 27 28  1  0  0  0  0
 27 29  2  0  0  0  0
 28 99  1  0  0  0  0
 28100  1  0  0  0  0
 28101  1  0  0  0  0
 29 30  1  0  0  0  0
 29102  1  0  0  0  0
 30 31  1  0  0  0  0
 30103  1  0  0  0  0
 30104  1  0  0  0  0
 31 32  1  0  0  0  0
 31105  1  0  0  0  0
 31106  1  0  0  0  0
 32 33  1  0  0  0  0
 32 34  2  0  0  0  0
 33107  1  0  0  0  0
 33108  1  0  0  0  0
 33109  1  0  0  0  0
 34 35  1  0  0  0  0
 34110  1  0  0  0  0
 35 36  1  0  0  0  0
 35111  1  0  0  0  0
 35112  1  0  0  0  0
 36 37  1  0  0  0  0
 36113  1  0  0  0  0
 36114  1  0  0  0  0
 37 38  1  0  0  0  0
 37 39  2  0  0  0  0
 38115  1  0  0  0  0
 38116  1  0  0  0  0
 38117  1  0  0  0  0
 39 40  1  0  0  0  0
 39118  1  0  0  0  0
 40 41  1  0  0  0  0
 40119  1  0  0  0  0
 40120  1  0  0  0  0
 41 42  1  0  0  0  0
 41121  1  0  0  0  0
 41122  1  0  0  0  0
 42 43  1  0  0  0  0
 42 44  2  0  0  0  0
 43123  1  0  0  0  0
 43124  1  0  0  0  0
 43125  1  0  0  0  0
 44 45  1  0  0  0  0
 44126  1  0  0  0  0
 45 46  1  0  0  0  0
 45127  1  0  0  0  0
 45128  1  0  0  0  0
 46 47  1  0  0  0  0
 47 48  2  0  0  0  0
 47 49  1  0  0  0  0
 49 50  1  0  0  0  0
 49 55  2  0  0  0  0
 50 51  2  0  0  0  0
 50129  1  0  0  0  0
 51 52  1  0  0  0  0
 51130  1  0  0  0  0
 52 53  1  0  0  0  0
 52 54  2  0  0  0  0
 53131  1  0  0  0  0
 54 55  1  0  0  0  0
 54132  1  0  0  0  0
 55133  1  0  0  0  0
M  END
$$$$
