CHEBI:17605
 OpenBabel04242416553D

 17 17  0  0  0  0  0  0  0  0999 V2000
    1.3952   -0.4565    0.2052 O   0  0  0  0  0  0  0  0  0  0  0  0
    2.5842   -0.2840   -0.0295 C   0  0  0  0  0  0  0  0  0  0  0  0
    3.1496    1.0668   -0.1784 C   0  0  0  0  0  0  0  0  0  0  0  0
    4.2801    1.1457   -1.0140 C   0  0  0  0  0  0  0  0  0  0  0  0
    4.9043    2.3694   -1.2520 C   0  0  0  0  0  0  0  0  0  0  0  0
    4.4113    3.5216   -0.6532 C   0  0  0  0  0  0  0  0  0  0  0  0
    3.2983    3.4461    0.1869 C   0  0  0  0  0  0  0  0  0  0  0  0
    2.6442    2.2217    0.4382 C   0  0  0  0  0  0  0  0  0  0  0  0
    1.5316    2.3103    1.4292 C   0  0  0  0  0  0  0  0  0  0  0  0
    1.5572    3.1558    2.3136 O   0  0  0  0  0  0  0  0  0  0  0  0
    0.4562    1.5294    1.2419 O   0  0  0  0  0  0  0  0  0  0  0  0
    3.2648   -1.1356   -0.2014 H   0  0  0  0  0  0  0  0  0  0  0  0
    4.6800    0.2568   -1.4995 H   0  0  0  0  0  0  0  0  0  0  0  0
    5.7741    2.4240   -1.9031 H   0  0  0  0  0  0  0  0  0  0  0  0
    4.8948    4.4806   -0.8276 H   0  0  0  0  0  0  0  0  0  0  0  0
    2.9419    4.3609    0.6631 H   0  0  0  0  0  0  0  0  0  0  0  0
    0.5812    0.7466    0.6549 H   0  0  0  0  0  0  0  0  0  0  0  0
  1  2  2  0  0  0  0
  2  3  1  0  0  0  0
  2 12  1  0  0  0  0
  3  4  1  0  0  0  0
  3  8  2  0  0  0  0
  4  5  2  0  0  0  0
  4 13  1  0  0  0  0
  5  6  1  0  0  0  0
  5 14  1  0  0  0  0
  6  7  2  0  0  0  0
  6 15  1  0  0  0  0
  7  8  1  0  0  0  0
  7 16  1  0  0  0  0
  8  9  1  0  0  0  0
  9 10  2  0  0  0  0
  9 11  1  0  0  0  0
 11 17  1  0  0  0  0
M  END
$$$$
