CHEBI:18058
 OpenBabel04242423283D

  9  8  0  0  0  0  0  0  0  0999 V2000
    1.1997    0.0310   -0.3465 N   0  0  0  0  0  0  0  0  0  0  0  0
    2.3478   -0.2066    0.3529 C   0  0  0  0  0  0  0  0  0  0  0  0
    2.9139    0.6002    1.0773 O   0  0  0  0  0  0  0  0  0  0  0  0
    2.9504   -1.6163    0.1921 C   0  0  0  0  0  0  0  0  0  0  0  0
    2.4483   -2.4738   -0.5086 O   0  0  0  0  0  0  0  0  0  0  0  0
    4.0740   -1.7367    0.9227 O   0  0  0  0  0  0  0  0  0  0  0  0
    0.7503    0.9337   -0.2877 H   0  0  0  0  0  0  0  0  0  0  0  0
    0.7954   -0.6973   -0.9263 H   0  0  0  0  0  0  0  0  0  0  0  0
    4.2407   -0.8834    1.3889 H   0  0  0  0  0  0  0  0  0  0  0  0
  1  2  1  0  0  0  0
  1  7  1  0  0  0  0
  1  8  1  0  0  0  0
  2  3  2  0  0  0  0
  2  4  1  0  0  0  0
  4  5  2  0  0  0  0
  4  6  1  0  0  0  0
  6  9  1  0  0  0  0
M  END
$$$$
