CHEBI:15945
 OpenBabel04242413323D

 22 22  0  0  1  0  0  0  0  0999 V2000
    1.1314    0.0601    0.2125 O   0  0  0  0  0  0  0  0  0  0  0  0
    2.2989    0.0911   -0.1747 C   0  0  0  0  0  0  0  0  0  0  0  0
    2.9726   -1.0538   -0.4195 O   0  0  0  0  0  0  0  0  0  0  0  0
    4.0858   -1.0799   -1.3347 C   0  0  2  0  0  0  0  0  0  0  0  0
    4.8201   -2.4060   -1.1216 C   0  0  0  0  0  0  0  0  0  0  0  0
    5.9229   -2.5285   -2.0102 O   0  0  0  0  0  0  0  0  0  0  0  0
    5.0050    0.1309   -1.1809 C   0  0  2  0  0  0  0  0  0  0  0  0
    5.6308    0.1604    0.1114 O   0  0  0  0  0  0  0  0  0  0  0  0
    4.1605    1.3920   -1.3255 C   0  0  2  0  0  0  0  0  0  0  0  0
    5.0281    2.5292   -1.1732 O   0  0  0  0  0  0  0  0  0  0  0  0
    3.0527    1.4126   -0.2771 C   0  0  1  0  0  0  0  0  0  0  0  0
    2.1296    2.4693   -0.5801 O   0  0  0  0  0  0  0  0  0  0  0  0
    3.6708   -1.0805   -2.3510 H   0  0  0  0  0  0  0  0  0  0  0  0
    4.1425   -3.2552   -1.2676 H   0  0  0  0  0  0  0  0  0  0  0  0
    5.1930   -2.4855   -0.0947 H   0  0  0  0  0  0  0  0  0  0  0  0
    5.5890   -2.9057   -2.8446 H   0  0  0  0  0  0  0  0  0  0  0  0
    5.8061    0.1336   -1.9290 H   0  0  0  0  0  0  0  0  0  0  0  0
    6.3860   -0.4590    0.0722 H   0  0  0  0  0  0  0  0  0  0  0  0
    3.7324    1.4564   -2.3326 H   0  0  0  0  0  0  0  0  0  0  0  0
    5.5015    2.3994   -0.3286 H   0  0  0  0  0  0  0  0  0  0  0  0
    3.4646    1.6351    0.7139 H   0  0  0  0  0  0  0  0  0  0  0  0
    1.3448    2.3160   -0.0177 H   0  0  0  0  0  0  0  0  0  0  0  0
  1  2  2  0  0  0  0
  2  3  1  0  0  0  0
  2 11  1  0  0  0  0
  3  4  1  0  0  0  0
  4  5  1  0  0  0  0
  4  7  1  0  0  0  0
  4 13  1  6  0  0  0
  5  6  1  0  0  0  0
  5 14  1  0  0  0  0
  5 15  1  0  0  0  0
  6 16  1  0  0  0  0
  7  8  1  0  0  0  0
  7  9  1  0  0  0  0
  7 17  1  6  0  0  0
  8 18  1  0  0  0  0
  9 10  1  0  0  0  0
  9 11  1  0  0  0  0
  9 19  1  6  0  0  0
 10 20  1  0  0  0  0
 11 12  1  0  0  0  0
 11 21  1  1  0  0  0
 12 22  1  0  0  0  0
M  END
$$$$
