CHEBI:17023
 OpenBabel04242415423D

 21 20  0  0  0  0  0  0  0  0999 V2000
    8.2101   -2.6090   -0.9651 O   0  0  0  0  0  0  0  0  0  0  0  0
    7.2540   -2.9381   -1.6547 C   0  0  0  0  0  0  0  0  0  0  0  0
    7.2987   -3.9764   -2.5122 O   0  0  0  0  0  0  0  0  0  0  0  0
    5.9222   -2.2296   -1.6438 C   0  0  0  0  0  0  0  0  0  0  0  0
    5.9439   -0.9515   -0.8007 C   0  0  0  0  0  0  0  0  0  0  0  0
    6.4491    0.3076   -1.5217 C   0  0  0  0  0  0  0  0  0  0  0  0
    7.9255    0.3795   -1.9293 C   0  0  0  0  0  0  0  0  0  0  0  0
    8.8113    0.0092   -0.8736 O   0  0  0  0  0  0  0  0  0  0  0  0
    8.2635   -0.3905   -3.2100 C   0  0  0  0  0  0  0  0  0  0  0  0
    7.4677   -0.6976   -4.0850 O   0  0  0  0  0  0  0  0  0  0  0  0
    9.5824   -0.7027   -3.2628 O   0  0  0  0  0  0  0  0  0  0  0  0
    6.5011   -4.0643   -3.0697 H   0  0  0  0  0  0  0  0  0  0  0  0
    5.2009   -2.9275   -1.2021 H   0  0  0  0  0  0  0  0  0  0  0  0
    5.6061   -2.0079   -2.6674 H   0  0  0  0  0  0  0  0  0  0  0  0
    6.5011   -1.1000    0.1316 H   0  0  0  0  0  0  0  0  0  0  0  0
    4.9083   -0.7456   -0.4980 H   0  0  0  0  0  0  0  0  0  0  0  0
    6.2704    1.1418   -0.8295 H   0  0  0  0  0  0  0  0  0  0  0  0
    5.8138    0.4985   -2.3956 H   0  0  0  0  0  0  0  0  0  0  0  0
    8.1519    1.4266   -2.1657 H   0  0  0  0  0  0  0  0  0  0  0  0
    8.6504   -0.9401   -0.6619 H   0  0  0  0  0  0  0  0  0  0  0  0
   10.0111   -0.4339   -2.4169 H   0  0  0  0  0  0  0  0  0  0  0  0
  1  2  2  0  0  0  0
  2  3  1  0  0  0  0
  2  4  1  0  0  0  0
  3 12  1  0  0  0  0
  4  5  1  0  0  0  0
  4 13  1  0  0  0  0
  4 14  1  0  0  0  0
  5  6  1  0  0  0  0
  5 15  1  0  0  0  0
  5 16  1  0  0  0  0
  6  7  1  0  0  0  0
  6 17  1  0  0  0  0
  6 18  1  0  0  0  0
  7  8  1  0  0  0  0
  7  9  1  0  0  0  0
  7 19  1  0  0  0  0
  8 20  1  0  0  0  0
  9 10  2  0  0  0  0
  9 11  1  0  0  0  0
 11 21  1  0  0  0  0
M  END
$$$$
