CHEBI:27388
 OpenBabel04252409443D

101104  0  0  1  0  0  0  0  0999 V2000
   -5.1090  -10.3347   14.5765 C   0  0  0  0  0  0  0  0  0  0  0  0
   -4.0697  -11.4064   14.9673 C   0  0  0  0  0  0  0  0  0  0  0  0
   -4.5802  -12.1520   16.2166 C   0  0  0  0  0  0  0  0  0  0  0  0
   -3.9145  -12.4000   13.7913 C   0  0  0  0  0  0  0  0  0  0  0  0
   -5.1248  -13.0962   13.5178 O   0  0  0  0  0  0  0  0  0  0  0  0
   -5.1213  -13.9771   12.1696 P   0  0  0  0  0  0  0  0  0  0  0  0
   -3.9292  -14.8609   12.0318 O   0  0  0  0  0  0  0  0  0  0  0  0
   -6.4870  -14.7999   12.3083 O   0  0  0  0  0  0  0  0  0  0  0  0
   -5.3988  -12.9187   11.0266 O   0  0  0  0  0  0  0  0  0  0  0  0
   -5.4258  -13.2388    9.4788 P   0  0  0  0  0  0  0  0  0  0  0  0
   -4.5288  -14.3222    8.9865 O   0  0  0  0  0  0  0  0  0  0  0  0
   -6.9600  -13.5704    9.1497 O   0  0  0  0  0  0  0  0  0  0  0  0
   -5.2083  -11.8246    8.7535 O   0  0  0  0  0  0  0  0  0  0  0  0
   -6.0938  -10.7513    9.0432 C   0  0  0  0  0  0  0  0  0  0  0  0
   -5.7495   -9.5760    8.1284 C   0  0  1  0  0  0  0  0  0  0  0  0
   -5.8941   -9.9961    6.7604 O   0  0  0  0  0  0  0  0  0  0  0  0
   -6.1367   -8.8262    5.9602 C   0  0  1  0  0  0  0  0  0  0  0  0
   -7.0038   -9.2044    4.8632 N   0  0  0  0  0  0  0  0  0  0  0  0
   -7.3993  -10.4753    4.5311 C   0  0  0  0  0  0  0  0  0  0  0  0
   -8.1303  -10.4971    3.4369 N   0  0  0  0  0  0  0  0  0  0  0  0
   -8.1690   -9.1849    3.0175 C   0  0  0  0  0  0  0  0  0  0  0  0
   -8.7653   -8.5654    1.9080 C   0  0  0  0  0  0  0  0  0  0  0  0
   -9.4773   -9.2664    0.9440 N   0  0  0  0  0  0  0  0  0  0  0  0
   -8.6549   -7.2236    1.7823 N   0  0  0  0  0  0  0  0  0  0  0  0
   -7.9482   -6.5484    2.7152 C   0  0  0  0  0  0  0  0  0  0  0  0
   -7.3302   -7.0316    3.8143 N   0  0  0  0  0  0  0  0  0  0  0  0
   -7.4837   -8.3630    3.8975 C   0  0  0  0  0  0  0  0  0  0  0  0
   -6.6937   -7.7373    6.8999 C   0  0  2  0  0  0  0  0  0  0  0  0
   -5.8544   -6.5758    6.8947 O   0  0  0  0  0  0  0  0  0  0  0  0
   -6.7119   -8.4028    8.2762 C   0  0  2  0  0  0  0  0  0  0  0  0
   -6.5423   -7.5238    9.3738 O   0  0  0  0  0  0  0  0  0  0  0  0
   -5.1195   -6.9746    9.8633 P   0  0  0  0  0  0  0  0  0  0  0  0
   -4.0066   -7.9514    9.9812 O   0  0  0  0  0  0  0  0  0  0  0  0
   -4.8189   -5.7125    8.9387 O   0  0  0  0  0  0  0  0  0  0  0  0
   -5.4711   -6.2491   11.2406 O   0  0  0  0  0  0  0  0  0  0  0  0
   -2.6664  -10.7900   15.2293 C   0  0  1  0  0  0  0  0  0  0  0  0
   -2.2487  -10.0473   14.0764 O   0  0  0  0  0  0  0  0  0  0  0  0
   -2.6082   -9.8984   16.4826 C   0  0  0  0  0  0  0  0  0  0  0  0
   -2.4409  -10.3450   17.6129 O   0  0  0  0  0  0  0  0  0  0  0  0
   -2.7709   -8.5593   16.2097 N   0  0  0  0  0  0  0  0  0  0  0  0
   -2.8450   -7.5788   17.2670 C   0  0  0  0  0  0  0  0  0  0  0  0
   -2.8405   -6.1545   16.7475 C   0  0  0  0  0  0  0  0  0  0  0  0
   -1.4702   -5.7259   16.2755 C   0  0  0  0  0  0  0  0  0  0  0  0
   -1.1456   -5.8326   15.0920 O   0  0  0  0  0  0  0  0  0  0  0  0
   -0.5681   -5.2228   17.1659 N   0  0  0  0  0  0  0  0  0  0  0  0
   -0.6759   -5.1008   18.6117 C   0  0  0  0  0  0  0  0  0  0  0  0
   -1.4505   -3.8631   19.0660 C   0  0  0  0  0  0  0  0  0  0  0  0
   -1.6577   -3.9182   20.8736 S   0  0  0  0  0  0  0  0  0  0  0  0
   -2.8566   -2.6347   21.0225 C   0  0  0  0  0  0  0  0  0  0  0  0
   -2.7229   -1.5680   20.4314 O   0  0  0  0  0  0  0  0  0  0  0  0
   -3.9977   -2.9487   21.9472 C   0  0  0  0  0  0  0  0  0  0  0  0
   -5.0270   -3.8448   21.3041 C   0  0  0  0  0  0  0  0  0  0  0  0
   -5.1916   -3.8953   20.0872 O   0  0  0  0  0  0  0  0  0  0  0  0
   -5.9205   -4.6457   22.1793 C   0  0  0  0  0  0  0  0  0  0  0  0
   -7.2697   -4.7634   21.8229 C   0  0  0  0  0  0  0  0  0  0  0  0
   -8.1372   -5.5221   22.6103 C   0  0  0  0  0  0  0  0  0  0  0  0
   -7.6568   -6.1750   23.7447 C   0  0  0  0  0  0  0  0  0  0  0  0
   -6.3098   -6.0731   24.0927 C   0  0  0  0  0  0  0  0  0  0  0  0
   -5.4383   -5.3100   23.3119 C   0  0  0  0  0  0  0  0  0  0  0  0
   -6.0895  -10.7833   14.3808 H   0  0  0  0  0  0  0  0  0  0  0  0
   -4.8101   -9.7930   13.6724 H   0  0  0  0  0  0  0  0  0  0  0  0
   -5.2473   -9.5990   15.3759 H   0  0  0  0  0  0  0  0  0  0  0  0
   -4.9051  -11.4512   16.9942 H   0  0  0  0  0  0  0  0  0  0  0  0
   -3.7976  -12.7883   16.6439 H   0  0  0  0  0  0  0  0  0  0  0  0
   -5.4396  -12.7917   15.9896 H   0  0  0  0  0  0  0  0  0  0  0  0
   -3.1471  -13.1455   14.0300 H   0  0  0  0  0  0  0  0  0  0  0  0
   -3.6019  -11.8739   12.8815 H   0  0  0  0  0  0  0  0  0  0  0  0
   -6.3369  -15.6118   12.8271 H   0  0  0  0  0  0  0  0  0  0  0  0
   -7.0020  -14.2036    8.4074 H   0  0  0  0  0  0  0  0  0  0  0  0
   -6.0038  -10.4691   10.0963 H   0  0  0  0  0  0  0  0  0  0  0  0
   -7.1182  -11.0857    8.8456 H   0  0  0  0  0  0  0  0  0  0  0  0
   -4.7002   -9.3026    8.2460 H   0  0  0  0  0  0  0  0  0  0  0  0
   -5.1831   -8.5184    5.5138 H   0  0  0  0  0  0  0  0  0  0  0  0
   -7.1192  -11.3460    5.1125 H   0  0  0  0  0  0  0  0  0  0  0  0
   -9.7885  -10.1795    1.2571 H   0  0  0  0  0  0  0  0  0  0  0  0
  -10.1387   -8.6830    0.4506 H   0  0  0  0  0  0  0  0  0  0  0  0
   -7.8715   -5.4757    2.5601 H   0  0  0  0  0  0  0  0  0  0  0  0
   -7.7014   -7.4111    6.6168 H   0  0  0  0  0  0  0  0  0  0  0  0
   -6.4427   -5.8325    7.1533 H   0  0  0  0  0  0  0  0  0  0  0  0
   -7.7200   -8.8236    8.3924 H   0  0  0  0  0  0  0  0  0  0  0  0
   -4.6183   -5.9951    8.0191 H   0  0  0  0  0  0  0  0  0  0  0  0
   -4.6589   -5.9207   11.6678 H   0  0  0  0  0  0  0  0  0  0  0  0
   -1.9250  -11.5857   15.3765 H   0  0  0  0  0  0  0  0  0  0  0  0
   -1.3373   -9.7439   14.2496 H   0  0  0  0  0  0  0  0  0  0  0  0
   -2.9806   -8.3037   15.2467 H   0  0  0  0  0  0  0  0  0  0  0  0
   -2.0206   -7.7684   17.9616 H   0  0  0  0  0  0  0  0  0  0  0  0
   -3.7791   -7.7689   17.8080 H   0  0  0  0  0  0  0  0  0  0  0  0
   -3.1928   -5.4773   17.5267 H   0  0  0  0  0  0  0  0  0  0  0  0
   -3.5368   -6.0400   15.9078 H   0  0  0  0  0  0  0  0  0  0  0  0
    0.3162   -4.9741   16.7348 H   0  0  0  0  0  0  0  0  0  0  0  0
    0.3518   -5.0596   18.9920 H   0  0  0  0  0  0  0  0  0  0  0  0
   -1.1357   -6.0154   18.9964 H   0  0  0  0  0  0  0  0  0  0  0  0
   -2.4381   -3.8250   18.5994 H   0  0  0  0  0  0  0  0  0  0  0  0
   -0.9173   -2.9512   18.7785 H   0  0  0  0  0  0  0  0  0  0  0  0
   -4.4909   -2.0072   22.2147 H   0  0  0  0  0  0  0  0  0  0  0  0
   -3.5932   -3.3725   22.8698 H   0  0  0  0  0  0  0  0  0  0  0  0
   -7.6492   -4.2661   20.9321 H   0  0  0  0  0  0  0  0  0  0  0  0
   -9.1855   -5.6106   22.3345 H   0  0  0  0  0  0  0  0  0  0  0  0
   -8.3312   -6.7743   24.3524 H   0  0  0  0  0  0  0  0  0  0  0  0
   -5.9366   -6.6008   24.9677 H   0  0  0  0  0  0  0  0  0  0  0  0
   -4.3888   -5.2790   23.5885 H   0  0  0  0  0  0  0  0  0  0  0  0
  1  2  1  0  0  0  0
  1 60  1  0  0  0  0
  1 61  1  0  0  0  0
  1 62  1  0  0  0  0
  2  3  1  0  0  0  0
  2  4  1  0  0  0  0
  2 36  1  0  0  0  0
  3 63  1  0  0  0  0
  3 64  1  0  0  0  0
  3 65  1  0  0  0  0
  4  5  1  0  0  0  0
  4 66  1  0  0  0  0
  4 67  1  0  0  0  0
  5  6  1  0  0  0  0
  6  7  2  0  0  0  0
  6  8  1  0  0  0  0
  6  9  1  0  0  0  0
  8 68  1  0  0  0  0
  9 10  1  0  0  0  0
 10 11  2  0  0  0  0
 10 12  1  0  0  0  0
 10 13  1  0  0  0  0
 12 69  1  0  0  0  0
 13 14  1  0  0  0  0
 14 70  1  0  0  0  0
 14 71  1  0  0  0  0
 15 16  1  0  0  0  0
 15 30  1  0  0  0  0
 15 14  1  0  0  0  0
 15 72  1  1  0  0  0
 16 17  1  0  0  0  0
 17 28  1  0  0  0  0
 17 18  1  0  0  0  0
 17 73  1  6  0  0  0
 18 19  1  0  0  0  0
 18 27  1  0  0  0  0
 19 20  2  0  0  0  0
 19 74  1  0  0  0  0
 20 21  1  0  0  0  0
 21 22  1  0  0  0  0
 21 27  2  0  0  0  0
 22 23  1  0  0  0  0
 22 24  2  0  0  0  0
 23 75  1  0  0  0  0
 23 76  1  0  0  0  0
 24 25  1  0  0  0  0
 25 26  2  0  0  0  0
 25 77  1  0  0  0  0
 26 27  1  0  0  0  0
 28 29  1  0  0  0  0
 28 30  1  0  0  0  0
 28 78  1  6  0  0  0
 29 79  1  0  0  0  0
 30 31  1  0  0  0  0
 30 80  1  1  0  0  0
 31 32  1  0  0  0  0
 32 33  2  0  0  0  0
 32 34  1  0  0  0  0
 32 35  1  0  0  0  0
 34 81  1  0  0  0  0
 35 82  1  0  0  0  0
 36 37  1  0  0  0  0
 36 38  1  0  0  0  0
 36 83  1  1  0  0  0
 37 84  1  0  0  0  0
 38 39  2  0  0  0  0
 38 40  1  0  0  0  0
 40 41  1  0  0  0  0
 40 85  1  0  0  0  0
 41 42  1  0  0  0  0
 41 86  1  0  0  0  0
 41 87  1  0  0  0  0
 42 43  1  0  0  0  0
 42 88  1  0  0  0  0
 42 89  1  0  0  0  0
 43 44  2  0  0  0  0
 43 45  1  0  0  0  0
 45 46  1  0  0  0  0
 45 90  1  0  0  0  0
 46 47  1  0  0  0  0
 46 91  1  0  0  0  0
 46 92  1  0  0  0  0
 47 48  1  0  0  0  0
 47 93  1  0  0  0  0
 47 94  1  0  0  0  0
 48 49  1  0  0  0  0
 49 50  2  0  0  0  0
 49 51  1  0  0  0  0
 51 52  1  0  0  0  0
 51 95  1  0  0  0  0
 51 96  1  0  0  0  0
 52 53  2  0  0  0  0
 52 54  1  0  0  0  0
 54 55  1  0  0  0  0
 54 59  2  0  0  0  0
 55 56  2  0  0  0  0
 55 97  1  0  0  0  0
 56 57  1  0  0  0  0
 56 98  1  0  0  0  0
 57 58  2  0  0  0  0
 57 99  1  0  0  0  0
 58 59  1  0  0  0  0
 58100  1  0  0  0  0
 59101  1  0  0  0  0
M  END
$$$$
