CHEBI:9599
 OpenBabel04242411403D

 45 46  0  0  1  0  0  0  0  0999 V2000
   -0.6390    6.0661    2.0654 C   0  0  0  0  0  0  0  0  0  0  0  0
   -0.3589    4.7429    2.7981 C   0  0  0  0  0  0  0  0  0  0  0  0
   -0.5326    4.9356    4.3133 C   0  0  0  0  0  0  0  0  0  0  0  0
   -1.3835    3.6949    2.3223 C   0  0  0  0  0  0  0  0  0  0  0  0
    0.9705    4.1971    2.4533 N   0  0  0  0  0  0  0  0  0  0  0  0
    2.1214    5.0147    2.8854 C   0  0  0  0  0  0  0  0  0  0  0  0
    3.4258    4.3018    2.4685 C   0  0  2  0  0  0  0  0  0  0  0  0
    3.3753    2.9427    2.9260 O   0  0  0  0  0  0  0  0  0  0  0  0
    4.6843    4.9783    3.0249 C   0  0  0  0  0  0  0  0  0  0  0  0
    4.8667    6.2789    2.4627 O   0  0  0  0  0  0  0  0  0  0  0  0
    4.4468    7.3229    3.2259 C   0  0  0  0  0  0  0  0  0  0  0  0
    4.4752    7.2080    4.5538 N   0  0  0  0  0  0  0  0  0  0  0  0
    3.8668    8.6574    5.1090 S   0  0  0  0  0  0  0  0  0  0  0  0
    3.5597    9.4305    3.6657 N   0  0  0  0  0  0  0  0  0  0  0  0
    3.9655    8.5982    2.6969 C   0  0  0  0  0  0  0  0  0  0  0  0
    3.8585    8.8858    1.3511 N   0  0  0  0  0  0  0  0  0  0  0  0
    3.1479   10.1354    0.9909 C   0  0  0  0  0  0  0  0  0  0  0  0
    2.8371   10.1558   -0.5124 C   0  0  0  0  0  0  0  0  0  0  0  0
    4.0287   10.0034   -1.2982 O   0  0  0  0  0  0  0  0  0  0  0  0
    4.6691    8.7582   -0.9835 C   0  0  0  0  0  0  0  0  0  0  0  0
    5.0541    8.6800    0.5020 C   0  0  0  0  0  0  0  0  0  0  0  0
   -1.6751    6.3880    2.2228 H   0  0  0  0  0  0  0  0  0  0  0  0
   -0.4881    5.9637    0.9845 H   0  0  0  0  0  0  0  0  0  0  0  0
    0.0067    6.8764    2.4204 H   0  0  0  0  0  0  0  0  0  0  0  0
   -1.5704    5.1902    4.5586 H   0  0  0  0  0  0  0  0  0  0  0  0
    0.0942    5.7468    4.6990 H   0  0  0  0  0  0  0  0  0  0  0  0
   -0.2805    4.0211    4.8625 H   0  0  0  0  0  0  0  0  0  0  0  0
   -2.4085    4.0158    2.5415 H   0  0  0  0  0  0  0  0  0  0  0  0
   -1.2277    2.7295    2.8188 H   0  0  0  0  0  0  0  0  0  0  0  0
   -1.3168    3.5289    1.2403 H   0  0  0  0  0  0  0  0  0  0  0  0
    1.0193    4.0776    1.4389 H   0  0  0  0  0  0  0  0  0  0  0  0
    2.1150    5.1105    3.9757 H   0  0  0  0  0  0  0  0  0  0  0  0
    2.0830    6.0092    2.4339 H   0  0  0  0  0  0  0  0  0  0  0  0
    3.4818    4.2783    1.3731 H   0  0  0  0  0  0  0  0  0  0  0  0
    2.4209    2.7165    2.9217 H   0  0  0  0  0  0  0  0  0  0  0  0
    5.5537    4.3839    2.7160 H   0  0  0  0  0  0  0  0  0  0  0  0
    4.7046    4.9374    4.1207 H   0  0  0  0  0  0  0  0  0  0  0  0
    3.7788   10.9966    1.2456 H   0  0  0  0  0  0  0  0  0  0  0  0
    2.2016   10.2192    1.5387 H   0  0  0  0  0  0  0  0  0  0  0  0
    2.3804   11.1126   -0.7843 H   0  0  0  0  0  0  0  0  0  0  0  0
    2.1306    9.3605   -0.7789 H   0  0  0  0  0  0  0  0  0  0  0  0
    5.5676    8.6824   -1.6040 H   0  0  0  0  0  0  0  0  0  0  0  0
    4.0011    7.9336   -1.2602 H   0  0  0  0  0  0  0  0  0  0  0  0
    5.7878    9.4635    0.7307 H   0  0  0  0  0  0  0  0  0  0  0  0
    5.5300    7.7122    0.6768 H   0  0  0  0  0  0  0  0  0  0  0  0
  1  2  1  0  0  0  0
  1 22  1  0  0  0  0
  1 23  1  0  0  0  0
  1 24  1  0  0  0  0
  2  3  1  0  0  0  0
  2  4  1  0  0  0  0
  2  5  1  0  0  0  0
  3 25  1  0  0  0  0
  3 26  1  0  0  0  0
  3 27  1  0  0  0  0
  4 28  1  0  0  0  0
  4 29  1  0  0  0  0
  4 30  1  0  0  0  0
  5  6  1  0  0  0  0
  5 31  1  0  0  0  0
  6 32  1  0  0  0  0
  6 33  1  0  0  0  0
  7  9  1  0  0  0  0
  7  8  1  0  0  0  0
  7  6  1  0  0  0  0
  7 34  1  6  0  0  0
  8 35  1  0  0  0  0
  9 10  1  0  0  0  0
  9 36  1  0  0  0  0
  9 37  1  0  0  0  0
 10 11  1  0  0  0  0
 11 12  2  0  0  0  0
 11 15  1  0  0  0  0
 12 13  1  0  0  0  0
 13 14  1  0  0  0  0
 14 15  2  0  0  0  0
 15 16  1  0  0  0  0
 16 17  1  0  0  0  0
 16 21  1  0  0  0  0
 17 18  1  0  0  0  0
 17 38  1  0  0  0  0
 17 39  1  0  0  0  0
 18 19  1  0  0  0  0
 18 40  1  0  0  0  0
 18 41  1  0  0  0  0
 19 20  1  0  0  0  0
 20 21  1  0  0  0  0
 20 42  1  0  0  0  0
 20 43  1  0  0  0  0
 21 44  1  0  0  0  0
 21 45  1  0  0  0  0
M  END
$$$$
