CHEBI:17068
 OpenBabel04242415483D

108111  0  0  1  0  0  0  0  0999 V2000
   34.0884   27.0872   17.3011 C   0  0  0  0  0  0  0  0  0  0  0  0
   33.9626   26.9975   15.8866 O   0  0  0  0  0  0  0  0  0  0  0  0
   34.9402   26.2860   15.2443 C   0  0  0  0  0  0  0  0  0  0  0  0
   34.4882   25.5902   14.1180 C   0  0  0  0  0  0  0  0  0  0  0  0
   35.3282   24.6936   13.4386 C   0  0  0  0  0  0  0  0  0  0  0  0
   34.7293   23.6827   12.4834 C   0  0  0  0  0  0  0  0  0  0  0  0
   35.6314   23.5023   11.3870 O   0  0  0  0  0  0  0  0  0  0  0  0
   34.5287   22.3307   13.1768 C   0  0  0  0  0  0  0  0  0  0  0  0
   33.2853   22.2568   14.0372 C   0  0  0  0  0  0  0  0  0  0  0  0
   32.2451   21.7803   13.6108 O   0  0  0  0  0  0  0  0  0  0  0  0
   33.4451   22.8592   15.6825 S   0  0  0  0  0  0  0  0  0  0  0  0
   32.4967   21.6798   16.6746 C   0  0  0  0  0  0  0  0  0  0  0  0
   30.9869   21.9325   16.7497 C   0  0  0  0  0  0  0  0  0  0  0  0
   30.2796   21.3710   15.6182 N   0  0  0  0  0  0  0  0  0  0  0  0
   29.5786   22.1531   14.7301 C   0  0  0  0  0  0  0  0  0  0  0  0
   29.2959   23.3292   14.9348 O   0  0  0  0  0  0  0  0  0  0  0  0
   29.1358   21.4013   13.4915 C   0  0  0  0  0  0  0  0  0  0  0  0
   29.0481   22.3297   12.2898 C   0  0  0  0  0  0  0  0  0  0  0  0
   27.9425   23.2715   12.3786 N   0  0  0  0  0  0  0  0  0  0  0  0
   27.6453   24.2338   11.4547 C   0  0  0  0  0  0  0  0  0  0  0  0
   26.9570   25.2034   11.7803 O   0  0  0  0  0  0  0  0  0  0  0  0
   28.2179   24.1224   10.0326 C   0  0  2  0  0  0  0  0  0  0  0  0
   28.8824   25.3571    9.7249 O   0  0  0  0  0  0  0  0  0  0  0  0
   27.1587   23.7977    8.9431 C   0  0  0  0  0  0  0  0  0  0  0  0
   26.2847   22.5901    9.3360 C   0  0  0  0  0  0  0  0  0  0  0  0
   26.2470   25.0083    8.6427 C   0  0  0  0  0  0  0  0  0  0  0  0
   27.9129   23.4815    7.6347 C   0  0  0  0  0  0  0  0  0  0  0  0
   28.8006   22.3935    7.7776 O   0  0  0  0  0  0  0  0  0  0  0  0
   29.5512   21.7892    6.4971 P   0  0  0  0  0  0  0  0  0  0  0  0
   30.7398   20.9549    6.8568 O   0  0  0  0  0  0  0  0  0  0  0  0
   28.4404   20.8551    5.8242 O   0  0  0  0  0  0  0  0  0  0  0  0
   29.8491   22.9155    5.4298 O   0  0  0  0  0  0  0  0  0  0  0  0
   28.9079   23.8244    4.5512 P   0  0  0  0  0  0  0  0  0  0  0  0
   28.4548   25.1319    5.1320 O   0  0  0  0  0  0  0  0  0  0  0  0
   29.7801   24.0741    3.2324 O   0  0  0  0  0  0  0  0  0  0  0  0
   27.7095   22.9156    3.9963 O   0  0  0  0  0  0  0  0  0  0  0  0
   26.4651   23.5482    3.7164 C   0  0  0  0  0  0  0  0  0  0  0  0
   26.6132   24.6900    2.7032 C   0  0  1  0  0  0  0  0  0  0  0  0
   26.9586   24.1595    1.4096 O   0  0  0  0  0  0  0  0  0  0  0  0
   25.9009   24.4938    0.4793 C   0  0  1  0  0  0  0  0  0  0  0  0
   25.8018   23.4112   -0.4759 N   0  0  0  0  0  0  0  0  0  0  0  0
   26.6639   22.3487   -0.6009 C   0  0  0  0  0  0  0  0  0  0  0  0
   26.3549   21.5746   -1.6197 N   0  0  0  0  0  0  0  0  0  0  0  0
   25.2733   22.1912   -2.2089 C   0  0  0  0  0  0  0  0  0  0  0  0
   24.5109   21.8765   -3.3449 C   0  0  0  0  0  0  0  0  0  0  0  0
   24.7313   20.7427   -4.1170 N   0  0  0  0  0  0  0  0  0  0  0  0
   23.5311   22.7299   -3.7187 N   0  0  0  0  0  0  0  0  0  0  0  0
   23.3075   23.8234   -2.9572 C   0  0  0  0  0  0  0  0  0  0  0  0
   23.9355   24.2007   -1.8226 N   0  0  0  0  0  0  0  0  0  0  0  0
   24.9219   23.3416   -1.5196 C   0  0  0  0  0  0  0  0  0  0  0  0
   24.6741   24.7429    1.3724 C   0  0  2  0  0  0  0  0  0  0  0  0
   23.6072   25.5066    0.8318 O   0  0  0  0  0  0  0  0  0  0  0  0
   25.3335   25.4899    2.5323 C   0  0  2  0  0  0  0  0  0  0  0  0
   25.6593   26.8157    2.1162 O   0  0  0  0  0  0  0  0  0  0  0  0
   26.1276   27.9460    3.1421 P   0  0  0  0  0  0  0  0  0  0  0  0
   26.0659   29.3511    2.6532 O   0  0  0  0  0  0  0  0  0  0  0  0
   25.1875   27.7727    4.4224 O   0  0  0  0  0  0  0  0  0  0  0  0
   27.5380   27.5258    3.7510 O   0  0  0  0  0  0  0  0  0  0  0  0
   36.6830   24.6382   13.7949 C   0  0  0  0  0  0  0  0  0  0  0  0
   37.1581   25.3760   14.8783 C   0  0  0  0  0  0  0  0  0  0  0  0
   36.2772   26.1586   15.6266 C   0  0  0  0  0  0  0  0  0  0  0  0
   36.7558   26.7718   16.7501 O   0  0  0  0  0  0  0  0  0  0  0  0
   34.7212   27.9369   17.5729 H   0  0  0  0  0  0  0  0  0  0  0  0
   34.4526   26.1561   17.7513 H   0  0  0  0  0  0  0  0  0  0  0  0
   33.0917   27.2730   17.7133 H   0  0  0  0  0  0  0  0  0  0  0  0
   33.4353   25.6663   13.8505 H   0  0  0  0  0  0  0  0  0  0  0  0
   33.7899   24.0682   12.0693 H   0  0  0  0  0  0  0  0  0  0  0  0
   35.1340   23.0759   10.6679 H   0  0  0  0  0  0  0  0  0  0  0  0
   35.4061   22.0249   13.7593 H   0  0  0  0  0  0  0  0  0  0  0  0
   34.4179   21.5500   12.4116 H   0  0  0  0  0  0  0  0  0  0  0  0
   32.8945   21.7822   17.6909 H   0  0  0  0  0  0  0  0  0  0  0  0
   32.7181   20.6594   16.3469 H   0  0  0  0  0  0  0  0  0  0  0  0
   30.7611   22.9977   16.8721 H   0  0  0  0  0  0  0  0  0  0  0  0
   30.5898   21.4117   17.6282 H   0  0  0  0  0  0  0  0  0  0  0  0
   30.4987   20.4217   15.3460 H   0  0  0  0  0  0  0  0  0  0  0  0
   28.1711   20.9277   13.7004 H   0  0  0  0  0  0  0  0  0  0  0  0
   29.8607   20.6096   13.2678 H   0  0  0  0  0  0  0  0  0  0  0  0
   28.9041   21.7249   11.3881 H   0  0  0  0  0  0  0  0  0  0  0  0
   29.9722   22.9070   12.1662 H   0  0  0  0  0  0  0  0  0  0  0  0
   27.7058   23.5885   13.3177 H   0  0  0  0  0  0  0  0  0  0  0  0
   29.0027   23.3648   10.0152 H   0  0  0  0  0  0  0  0  0  0  0  0
   28.3643   26.0581   10.1702 H   0  0  0  0  0  0  0  0  0  0  0  0
   26.8082   21.9017   10.0058 H   0  0  0  0  0  0  0  0  0  0  0  0
   25.9776   22.0128    8.4560 H   0  0  0  0  0  0  0  0  0  0  0  0
   25.3665   22.9112    9.8417 H   0  0  0  0  0  0  0  0  0  0  0  0
   25.6816   25.3200    9.5258 H   0  0  0  0  0  0  0  0  0  0  0  0
   25.5217   24.7671    7.8568 H   0  0  0  0  0  0  0  0  0  0  0  0
   26.8235   25.8725    8.2930 H   0  0  0  0  0  0  0  0  0  0  0  0
   28.5118   24.3508    7.3575 H   0  0  0  0  0  0  0  0  0  0  0  0
   27.2030   23.2616    6.8303 H   0  0  0  0  0  0  0  0  0  0  0  0
   28.8250   19.9733    5.6504 H   0  0  0  0  0  0  0  0  0  0  0  0
   30.2045   24.9519    3.2323 H   0  0  0  0  0  0  0  0  0  0  0  0
   26.0484   23.9171    4.6609 H   0  0  0  0  0  0  0  0  0  0  0  0
   25.7942   22.7711    3.3362 H   0  0  0  0  0  0  0  0  0  0  0  0
   27.4488   25.3318    2.9557 H   0  0  0  0  0  0  0  0  0  0  0  0
   26.1990   25.3880   -0.0819 H   0  0  0  0  0  0  0  0  0  0  0  0
   27.5041   22.1930    0.0669 H   0  0  0  0  0  0  0  0  0  0  0  0
   25.6634   20.3580   -4.0055 H   0  0  0  0  0  0  0  0  0  0  0  0
   24.3762   20.8473   -5.0579 H   0  0  0  0  0  0  0  0  0  0  0  0
   22.5180   24.4840   -3.3045 H   0  0  0  0  0  0  0  0  0  0  0  0
   24.2599   23.7925    1.7317 H   0  0  0  0  0  0  0  0  0  0  0  0
   23.1094   24.9387    0.2131 H   0  0  0  0  0  0  0  0  0  0  0  0
   24.6904   25.5350    3.4153 H   0  0  0  0  0  0  0  0  0  0  0  0
   24.7837   28.6437    4.6154 H   0  0  0  0  0  0  0  0  0  0  0  0
   27.5134   26.8922    4.4983 H   0  0  0  0  0  0  0  0  0  0  0  0
   37.3639   23.9860   13.2506 H   0  0  0  0  0  0  0  0  0  0  0  0
   38.2094   25.3122   15.1427 H   0  0  0  0  0  0  0  0  0  0  0  0
   37.4078   26.1709   17.1482 H   0  0  0  0  0  0  0  0  0  0  0  0
  1  2  1  0  0  0  0
  1 63  1  0  0  0  0
  1 64  1  0  0  0  0
  1 65  1  0  0  0  0
  2  3  1  0  0  0  0
  3  4  1  0  0  0  0
  3 61  2  0  0  0  0
  4  5  2  0  0  0  0
  4 66  1  0  0  0  0
  5  6  1  0  0  0  0
  5 59  1  0  0  0  0
  6  7  1  0  0  0  0
  6  8  1  0  0  0  0
  6 67  1  0  0  0  0
  7 68  1  0  0  0  0
  8  9  1  0  0  0  0
  8 69  1  0  0  0  0
  8 70  1  0  0  0  0
  9 10  2  0  0  0  0
  9 11  1  0  0  0  0
 11 12  1  0  0  0  0
 12 13  1  0  0  0  0
 12 71  1  0  0  0  0
 12 72  1  0  0  0  0
 13 14  1  0  0  0  0
 13 73  1  0  0  0  0
 13 74  1  0  0  0  0
 14 15  1  0  0  0  0
 14 75  1  0  0  0  0
 15 16  2  0  0  0  0
 15 17  1  0  0  0  0
 17 18  1  0  0  0  0
 17 76  1  0  0  0  0
 17 77  1  0  0  0  0
 18 19  1  0  0  0  0
 18 78  1  0  0  0  0
 18 79  1  0  0  0  0
 19 20  1  0  0  0  0
 19 80  1  0  0  0  0
 20 21  2  0  0  0  0
 22 24  1  0  0  0  0
 22 23  1  0  0  0  0
 22 20  1  0  0  0  0
 22 81  1  6  0  0  0
 23 82  1  0  0  0  0
 24 25  1  0  0  0  0
 24 26  1  0  0  0  0
 24 27  1  0  0  0  0
 25 83  1  0  0  0  0
 25 84  1  0  0  0  0
 25 85  1  0  0  0  0
 26 86  1  0  0  0  0
 26 87  1  0  0  0  0
 26 88  1  0  0  0  0
 27 28  1  0  0  0  0
 27 89  1  0  0  0  0
 27 90  1  0  0  0  0
 28 29  1  0  0  0  0
 29 30  2  0  0  0  0
 29 31  1  0  0  0  0
 29 32  1  0  0  0  0
 31 91  1  0  0  0  0
 32 33  1  0  0  0  0
 33 34  2  0  0  0  0
 33 35  1  0  0  0  0
 33 36  1  0  0  0  0
 35 92  1  0  0  0  0
 36 37  1  0  0  0  0
 37 93  1  0  0  0  0
 37 94  1  0  0  0  0
 38 39  1  0  0  0  0
 38 53  1  0  0  0  0
 38 37  1  0  0  0  0
 38 95  1  1  0  0  0
 39 40  1  0  0  0  0
 40 51  1  0  0  0  0
 40 41  1  0  0  0  0
 40 96  1  6  0  0  0
 41 42  1  0  0  0  0
 41 50  1  0  0  0  0
 42 43  2  0  0  0  0
 42 97  1  0  0  0  0
 43 44  1  0  0  0  0
 44 45  1  0  0  0  0
 44 50  2  0  0  0  0
 45 46  1  0  0  0  0
 45 47  2  0  0  0  0
 46 98  1  0  0  0  0
 46 99  1  0  0  0  0
 47 48  1  0  0  0  0
 48 49  2  0  0  0  0
 48100  1  0  0  0  0
 49 50  1  0  0  0  0
 51 52  1  0  0  0  0
 51 53  1  0  0  0  0
 51101  1  1  0  0  0
 52102  1  0  0  0  0
 53 54  1  0  0  0  0
 53103  1  1  0  0  0
 54 55  1  0  0  0  0
 55 56  2  0  0  0  0
 55 57  1  0  0  0  0
 55 58  1  0  0  0  0
 57104  1  0  0  0  0
 58105  1  0  0  0  0
 59 60  2  0  0  0  0
 59106  1  0  0  0  0
 60 61  1  0  0  0  0
 60107  1  0  0  0  0
 61 62  1  0  0  0  0
 62108  1  0  0  0  0
M  END
$$$$
