CHEBI:15874
 OpenBabel04242413243D

 35 36  0  0  1  0  0  0  0  0999 V2000
    0.7121    3.2215    2.5781 O   0  0  0  0  0  0  0  0  0  0  0  0
    1.2871    2.5946    1.6970 C   0  0  0  0  0  0  0  0  0  0  0  0
    0.6149    1.8080    0.8289 O   0  0  0  0  0  0  0  0  0  0  0  0
    2.7621    2.7170    1.4565 C   0  0  0  0  0  0  0  0  0  0  0  0
    3.4115    1.4533    0.9706 C   0  0  0  0  0  0  0  0  0  0  0  0
    2.9287    0.8110    0.0392 O   0  0  0  0  0  0  0  0  0  0  0  0
    4.5641    1.1076    1.6138 N   0  0  0  0  0  0  0  0  0  0  0  0
    5.4378    0.0112    1.1837 C   0  0  2  0  0  0  0  0  0  0  0  0
    5.0322   -1.3631    1.7441 C   0  0  0  0  0  0  0  0  0  0  0  0
    4.9264   -1.4215    3.2437 C   0  0  0  0  0  0  0  0  0  0  0  0
    3.7573   -1.3310    3.9758 C   0  0  0  0  0  0  0  0  0  0  0  0
    4.0733   -1.3814    5.3062 N   0  0  0  0  0  0  0  0  0  0  0  0
    5.4338   -1.4951    5.4669 C   0  0  0  0  0  0  0  0  0  0  0  0
    6.2018   -1.5366    6.6375 C   0  0  0  0  0  0  0  0  0  0  0  0
    7.5855   -1.6791    6.5029 C   0  0  0  0  0  0  0  0  0  0  0  0
    8.1715   -1.8082    5.2478 C   0  0  0  0  0  0  0  0  0  0  0  0
    7.3868   -1.7758    4.0895 C   0  0  0  0  0  0  0  0  0  0  0  0
    5.9926   -1.5828    4.1912 C   0  0  0  0  0  0  0  0  0  0  0  0
    6.8831    0.3455    1.5563 C   0  0  0  0  0  0  0  0  0  0  0  0
    7.8790   -0.2637    1.2046 O   0  0  0  0  0  0  0  0  0  0  0  0
    6.9901    1.3954    2.4088 O   0  0  0  0  0  0  0  0  0  0  0  0
    1.1953    1.3371    0.1830 H   0  0  0  0  0  0  0  0  0  0  0  0
    3.2344    3.0489    2.3872 H   0  0  0  0  0  0  0  0  0  0  0  0
    2.9240    3.4938    0.7007 H   0  0  0  0  0  0  0  0  0  0  0  0
    4.9076    1.6454    2.4058 H   0  0  0  0  0  0  0  0  0  0  0  0
    5.3993   -0.0210    0.0880 H   0  0  0  0  0  0  0  0  0  0  0  0
    4.0608   -1.6465    1.3171 H   0  0  0  0  0  0  0  0  0  0  0  0
    5.7469   -2.1264    1.4107 H   0  0  0  0  0  0  0  0  0  0  0  0
    2.7263   -1.2312    3.6612 H   0  0  0  0  0  0  0  0  0  0  0  0
    3.4084   -1.3369    6.0662 H   0  0  0  0  0  0  0  0  0  0  0  0
    5.7457   -1.4567    7.6189 H   0  0  0  0  0  0  0  0  0  0  0  0
    8.2108   -1.7024    7.3925 H   0  0  0  0  0  0  0  0  0  0  0  0
    9.2476   -1.9383    5.1622 H   0  0  0  0  0  0  0  0  0  0  0  0
    7.8634   -1.8991    3.1215 H   0  0  0  0  0  0  0  0  0  0  0  0
    7.9402    1.4070    2.6538 H   0  0  0  0  0  0  0  0  0  0  0  0
  1  2  2  0  0  0  0
  2  3  1  0  0  0  0
  2  4  1  0  0  0  0
  3 22  1  0  0  0  0
  4  5  1  0  0  0  0
  4 23  1  0  0  0  0
  4 24  1  0  0  0  0
  5  6  2  0  0  0  0
  5  7  1  0  0  0  0
  7 25  1  0  0  0  0
  8 19  1  0  0  0  0
  8  9  1  0  0  0  0
  8  7  1  0  0  0  0
  8 26  1  6  0  0  0
  9 10  1  0  0  0  0
  9 27  1  0  0  0  0
  9 28  1  0  0  0  0
 10 11  2  0  0  0  0
 10 18  1  0  0  0  0
 11 12  1  0  0  0  0
 11 29  1  0  0  0  0
 12 13  1  0  0  0  0
 12 30  1  0  0  0  0
 13 14  1  0  0  0  0
 13 18  2  0  0  0  0
 14 15  2  0  0  0  0
 14 31  1  0  0  0  0
 15 16  1  0  0  0  0
 15 32  1  0  0  0  0
 16 17  2  0  0  0  0
 16 33  1  0  0  0  0
 17 18  1  0  0  0  0
 17 34  1  0  0  0  0
 19 20  2  0  0  0  0
 19 21  1  0  0  0  0
 21 35  1  0  0  0  0
M  END
$$$$
