CHEBI:16479
 OpenBabel04242414323D

 84 86  0  0  1  0  0  0  0  0999 V2000
   -2.6911   -8.8057   -4.7250 C   0  0  0  0  0  0  0  0  0  0  0  0
   -2.8726   -9.9802   -5.5762 N   0  0  0  0  0  0  0  0  0  0  0  0
   -3.1841  -11.1937   -4.7750 C   0  0  2  0  0  0  0  0  0  0  0  0
   -2.0130  -11.8812   -4.0182 C   0  0  2  0  0  0  0  0  0  0  0  0
   -0.8154  -12.2053   -4.7616 O   0  0  0  0  0  0  0  0  0  0  0  0
   -0.6105  -13.5518   -5.2331 C   0  0  1  0  0  0  0  0  0  0  0  0
    0.6264  -13.6357   -6.1944 C   0  0  2  0  0  0  0  0  0  0  0  0
    0.3336  -14.4312   -7.3639 O   0  0  0  0  0  0  0  0  0  0  0  0
    1.2917  -14.2878   -8.4524 C   0  0  1  0  0  0  0  0  0  0  0  0
    2.5255  -15.2038   -8.2860 C   0  0  2  0  0  0  0  0  0  0  0  0
    3.6351  -14.6996   -9.0520 O   0  0  0  0  0  0  0  0  0  0  0  0
    2.3040  -16.6720   -8.7078 C   0  0  1  0  0  0  0  0  0  0  0  0
    3.0855  -17.5923   -7.9478 O   0  0  0  0  0  0  0  0  0  0  0  0
    2.9493  -17.9133   -6.3945 P   0  0  0  0  0  0  0  0  0  0  0  0
    3.4194  -19.2517   -5.9372 O   0  0  0  0  0  0  0  0  0  0  0  0
    3.6583  -16.7015   -5.6343 O   0  0  0  0  0  0  0  0  0  0  0  0
    1.4140  -17.6435   -6.0477 O   0  0  0  0  0  0  0  0  0  0  0  0
    0.8203  -17.0413   -8.9242 C   0  0  2  0  0  0  0  0  0  0  0  0
    0.6678  -18.4044   -9.4826 N   0  0  0  0  0  0  0  0  0  0  0  0
    0.7145  -19.5316   -8.7409 C   0  0  0  0  0  0  0  0  0  0  0  0
    0.6628  -19.5805   -7.4590 N   0  0  0  0  0  0  0  0  0  0  0  0
    0.8206  -20.6223   -9.5211 N   0  0  0  0  0  0  0  0  0  0  0  0
    0.1493  -16.0703   -9.9427 C   0  0  1  0  0  0  0  0  0  0  0  0
   -1.2873  -16.1876   -9.7860 O   0  0  0  0  0  0  0  0  0  0  0  0
    0.5677  -14.5903   -9.7934 C   0  0  2  0  0  0  0  0  0  0  0  0
    1.2928  -13.9937  -10.9305 N   0  0  0  0  0  0  0  0  0  0  0  0
    2.1674  -14.4818  -11.8322 C   0  0  0  0  0  0  0  0  0  0  0  0
    2.8296  -13.7459  -12.6536 N   0  0  0  0  0  0  0  0  0  0  0  0
    2.3874  -15.8032  -11.9214 N   0  0  0  0  0  0  0  0  0  0  0  0
    1.7129  -14.2586   -5.5049 O   0  0  0  0  0  0  0  0  0  0  0  0
    1.2232  -14.8989   -4.3217 C   0  0  1  0  0  0  0  0  0  0  0  0
    2.1237  -14.4722   -3.1657 C   0  0  0  0  0  0  0  0  0  0  0  0
   -0.2635  -14.6075   -4.1578 C   0  0  1  0  0  0  0  0  0  0  0  0
   -0.4577  -14.2464   -2.7969 O   0  0  0  0  0  0  0  0  0  0  0  0
   -1.0456  -15.8808   -4.5148 C   0  0  0  0  0  0  0  0  0  0  0  0
   -1.7630  -16.5027   -3.7304 O   0  0  0  0  0  0  0  0  0  0  0  0
   -2.4656  -12.9482   -3.1951 O   0  0  0  0  0  0  0  0  0  0  0  0
   -3.6937  -13.6221   -3.4852 C   0  0  1  0  0  0  0  0  0  0  0  0
   -4.7552  -13.2161   -2.4480 C   0  0  0  0  0  0  0  0  0  0  0  0
   -4.2703  -13.3653   -1.1128 O   0  0  0  0  0  0  0  0  0  0  0  0
   -4.2123  -13.5362   -4.9305 C   0  0  2  0  0  0  0  0  0  0  0  0
   -3.6272  -14.6138   -5.6850 O   0  0  0  0  0  0  0  0  0  0  0  0
   -3.8935  -12.2241   -5.6639 C   0  0  1  0  0  0  0  0  0  0  0  0
   -5.1262  -11.6459   -6.1393 O   0  0  0  0  0  0  0  0  0  0  0  0
   -1.7896   -8.8883   -4.1121 H   0  0  0  0  0  0  0  0  0  0  0  0
   -2.5830   -7.9156   -5.3535 H   0  0  0  0  0  0  0  0  0  0  0  0
   -3.5561   -8.6383   -4.0729 H   0  0  0  0  0  0  0  0  0  0  0  0
   -3.6930   -9.8070   -6.1679 H   0  0  0  0  0  0  0  0  0  0  0  0
   -3.9290  -10.8874   -4.0270 H   0  0  0  0  0  0  0  0  0  0  0  0
   -1.6485  -11.1290   -3.3082 H   0  0  0  0  0  0  0  0  0  0  0  0
   -1.4816  -13.8092   -5.8316 H   0  0  0  0  0  0  0  0  0  0  0  0
    0.9313  -12.6297   -6.5037 H   0  0  0  0  0  0  0  0  0  0  0  0
    1.6180  -13.2395   -8.4846 H   0  0  0  0  0  0  0  0  0  0  0  0
    2.8732  -15.1599   -7.2665 H   0  0  0  0  0  0  0  0  0  0  0  0
    3.9781  -13.9049   -8.6053 H   0  0  0  0  0  0  0  0  0  0  0  0
    2.7708  -16.7990   -9.6825 H   0  0  0  0  0  0  0  0  0  0  0  0
    3.1102  -15.9031   -5.5580 H   0  0  0  0  0  0  0  0  0  0  0  0
    0.9300  -18.4485   -6.3906 H   0  0  0  0  0  0  0  0  0  0  0  0
    0.2531  -16.9937   -7.9908 H   0  0  0  0  0  0  0  0  0  0  0  0
    1.1628  -18.5097  -10.3654 H   0  0  0  0  0  0  0  0  0  0  0  0
    0.7788  -20.5642   -7.1755 H   0  0  0  0  0  0  0  0  0  0  0  0
    0.7022  -21.5146   -9.0571 H   0  0  0  0  0  0  0  0  0  0  0  0
    0.2589  -20.5805  -10.3641 H   0  0  0  0  0  0  0  0  0  0  0  0
    0.3140  -16.4150  -10.9662 H   0  0  0  0  0  0  0  0  0  0  0  0
   -1.4746  -17.1448   -9.8511 H   0  0  0  0  0  0  0  0  0  0  0  0
   -0.3698  -14.0177   -9.7553 H   0  0  0  0  0  0  0  0  0  0  0  0
    1.1980  -12.9857  -10.9566 H   0  0  0  0  0  0  0  0  0  0  0  0
    2.6182  -12.7613  -12.4935 H   0  0  0  0  0  0  0  0  0  0  0  0
    3.2172  -16.0065  -11.3677 H   0  0  0  0  0  0  0  0  0  0  0  0
    2.7552  -15.9517  -12.8625 H   0  0  0  0  0  0  0  0  0  0  0  0
    1.3711  -15.9728   -4.4343 H   0  0  0  0  0  0  0  0  0  0  0  0
    2.0580  -13.3929   -2.9934 H   0  0  0  0  0  0  0  0  0  0  0  0
    3.1705  -14.6930   -3.3979 H   0  0  0  0  0  0  0  0  0  0  0  0
    1.8638  -15.0004   -2.2423 H   0  0  0  0  0  0  0  0  0  0  0  0
   -1.3428  -13.8504   -2.7111 H   0  0  0  0  0  0  0  0  0  0  0  0
   -0.9413  -16.2277   -5.5587 H   0  0  0  0  0  0  0  0  0  0  0  0
   -3.4688  -14.6718   -3.2680 H   0  0  0  0  0  0  0  0  0  0  0  0
   -5.0581  -12.1735   -2.5620 H   0  0  0  0  0  0  0  0  0  0  0  0
   -5.6427  -13.8491   -2.5486 H   0  0  0  0  0  0  0  0  0  0  0  0
   -3.7263  -14.1734   -1.0695 H   0  0  0  0  0  0  0  0  0  0  0  0
   -5.2885  -13.7419   -4.9342 H   0  0  0  0  0  0  0  0  0  0  0  0
   -4.1149  -14.7025   -6.5233 H   0  0  0  0  0  0  0  0  0  0  0  0
   -3.2846  -12.4156   -6.5563 H   0  0  0  0  0  0  0  0  0  0  0  0
   -5.5027  -12.2498   -6.8033 H   0  0  0  0  0  0  0  0  0  0  0  0
  1  2  1  0  0  0  0
  1 45  1  0  0  0  0
  1 46  1  0  0  0  0
  1 47  1  0  0  0  0
  2  3  1  0  0  0  0
  2 48  1  0  0  0  0
  3  4  1  0  0  0  0
  3 43  1  0  0  0  0
  3 49  1  1  0  0  0
  4  5  1  0  0  0  0
  4 37  1  0  0  0  0
  4 50  1  1  0  0  0
  6  7  1  0  0  0  0
  6 33  1  0  0  0  0
  6  5  1  0  0  0  0
  6 51  1  6  0  0  0
  7 30  1  0  0  0  0
  7  8  1  0  0  0  0
  7 52  1  6  0  0  0
  9 10  1  0  0  0  0
  9 25  1  0  0  0  0
  9  8  1  0  0  0  0
  9 53  1  6  0  0  0
 10 11  1  0  0  0  0
 10 12  1  0  0  0  0
 10 54  1  1  0  0  0
 11 55  1  0  0  0  0
 12 13  1  0  0  0  0
 12 18  1  0  0  0  0
 12 56  1  6  0  0  0
 13 14  1  0  0  0  0
 14 15  2  0  0  0  0
 14 16  1  0  0  0  0
 14 17  1  0  0  0  0
 16 57  1  0  0  0  0
 17 58  1  0  0  0  0
 18 23  1  0  0  0  0
 18 19  1  0  0  0  0
 18 59  1  1  0  0  0
 19 20  1  0  0  0  0
 19 60  1  0  0  0  0
 20 21  2  0  0  0  0
 20 22  1  0  0  0  0
 21 61  1  0  0  0  0
 22 62  1  0  0  0  0
 22 63  1  0  0  0  0
 23 24  1  0  0  0  0
 23 25  1  0  0  0  0
 23 64  1  6  0  0  0
 24 65  1  0  0  0  0
 25 26  1  0  0  0  0
 25 66  1  1  0  0  0
 26 27  1  0  0  0  0
 26 67  1  0  0  0  0
 27 28  2  0  0  0  0
 27 29  1  0  0  0  0
 28 68  1  0  0  0  0
 29 69  1  0  0  0  0
 29 70  1  0  0  0  0
 30 31  1  0  0  0  0
 31 32  1  0  0  0  0
 31 33  1  0  0  0  0
 31 71  1  6  0  0  0
 32 72  1  0  0  0  0
 32 73  1  0  0  0  0
 32 74  1  0  0  0  0
 33 34  1  1  0  0  0
 33 35  1  0  0  0  0
 34 75  1  0  0  0  0
 35 36  2  0  0  0  0
 35 76  1  0  0  0  0
 37 38  1  0  0  0  0
 38 41  1  0  0  0  0
 38 39  1  0  0  0  0
 38 77  1  1  0  0  0
 39 40  1  0  0  0  0
 39 78  1  0  0  0  0
 39 79  1  0  0  0  0
 40 80  1  0  0  0  0
 41 42  1  0  0  0  0
 41 43  1  0  0  0  0
 41 81  1  1  0  0  0
 42 82  1  0  0  0  0
 43 44  1  0  0  0  0
 43 83  1  6  0  0  0
 44 84  1  0  0  0  0
M  END
$$$$
