CHEBI:17225
 OpenBabel04242416033D

 45 48  0  0  1  0  0  0  0  0999 V2000
    0.6601    1.3194   -2.1093 C   0  0  0  0  0  0  0  0  0  0  0  0
    1.8484    0.8100   -2.7033 O   0  0  0  0  0  0  0  0  0  0  0  0
    2.8180    0.3478   -1.8231 C   0  0  0  0  0  0  0  0  0  0  0  0
    4.1043    0.4683   -2.1884 C   0  0  0  0  0  0  0  0  0  0  0  0
    5.3324    0.0461   -1.3905 C   0  0  2  0  0  0  0  0  0  0  0  0
    6.1604    1.3086   -1.0064 C   0  0  0  0  0  0  0  0  0  0  0  0
    6.6987    1.2715    0.4363 C   0  0  0  0  0  0  0  0  0  0  0  0
    7.1429   -0.0715    0.8159 N   0  0  0  0  0  0  0  0  0  0  0  0
    7.7600   -0.0690    2.1396 C   0  0  0  0  0  0  0  0  0  0  0  0
    6.0675   -1.0843    0.7168 C   0  0  2  0  0  0  0  0  0  0  0  0
    6.5825   -2.3269   -0.0354 C   0  0  0  0  0  0  0  0  0  0  0  0
    6.8055   -2.0736   -1.5173 C   0  0  0  0  0  0  0  0  0  0  0  0
    7.6026   -2.9910   -2.2253 C   0  0  0  0  0  0  0  0  0  0  0  0
    7.9156   -2.7842   -3.5677 C   0  0  0  0  0  0  0  0  0  0  0  0
    7.4522   -1.6437   -4.2111 C   0  0  0  0  0  0  0  0  0  0  0  0
    7.7262   -1.2847   -5.5091 O   0  0  0  0  0  0  0  0  0  0  0  0
    8.5917   -2.1464   -6.2396 C   0  0  0  0  0  0  0  0  0  0  0  0
    6.6349   -0.7368   -3.5089 C   0  0  0  0  0  0  0  0  0  0  0  0
    6.2650    0.4091   -4.1711 O   0  0  0  0  0  0  0  0  0  0  0  0
    6.2446   -0.9449   -2.1729 C   0  0  0  0  0  0  0  0  0  0  0  0
    4.8912   -0.5928   -0.0814 C   0  0  0  0  0  0  0  0  0  0  0  0
    3.6223   -0.7378    0.3275 C   0  0  0  0  0  0  0  0  0  0  0  0
    2.4886   -0.2859   -0.5048 C   0  0  0  0  0  0  0  0  0  0  0  0
    1.3469   -0.4472   -0.0863 O   0  0  0  0  0  0  0  0  0  0  0  0
    0.8770    1.9550   -1.2442 H   0  0  0  0  0  0  0  0  0  0  0  0
   -0.0202    0.5045   -1.8467 H   0  0  0  0  0  0  0  0  0  0  0  0
    0.1542    1.9375   -2.8576 H   0  0  0  0  0  0  0  0  0  0  0  0
    4.2863    0.9556   -3.1423 H   0  0  0  0  0  0  0  0  0  0  0  0
    5.5543    2.2201   -1.1029 H   0  0  0  0  0  0  0  0  0  0  0  0
    7.0075    1.4435   -1.6920 H   0  0  0  0  0  0  0  0  0  0  0  0
    5.9271    1.6350    1.1291 H   0  0  0  0  0  0  0  0  0  0  0  0
    7.5336    1.9805    0.5017 H   0  0  0  0  0  0  0  0  0  0  0  0
    8.6172    0.6129    2.1639 H   0  0  0  0  0  0  0  0  0  0  0  0
    8.1448   -1.0640    2.3891 H   0  0  0  0  0  0  0  0  0  0  0  0
    7.0552    0.2359    2.9215 H   0  0  0  0  0  0  0  0  0  0  0  0
    5.7351   -1.3872    1.7189 H   0  0  0  0  0  0  0  0  0  0  0  0
    5.8544   -3.1438    0.0596 H   0  0  0  0  0  0  0  0  0  0  0  0
    7.5171   -2.6734    0.4246 H   0  0  0  0  0  0  0  0  0  0  0  0
    8.0035   -3.8669   -1.7185 H   0  0  0  0  0  0  0  0  0  0  0  0
    8.5411   -3.5160   -4.0660 H   0  0  0  0  0  0  0  0  0  0  0  0
    8.7316   -1.7129   -7.2346 H   0  0  0  0  0  0  0  0  0  0  0  0
    8.1441   -3.1374   -6.3677 H   0  0  0  0  0  0  0  0  0  0  0  0
    9.5764   -2.2134   -5.7651 H   0  0  0  0  0  0  0  0  0  0  0  0
    6.6507    0.3194   -5.0651 H   0  0  0  0  0  0  0  0  0  0  0  0
    3.3572   -1.2064    1.2677 H   0  0  0  0  0  0  0  0  0  0  0  0
  1  2  1  0  0  0  0
  1 25  1  0  0  0  0
  1 26  1  0  0  0  0
  1 27  1  0  0  0  0
  2  3  1  0  0  0  0
  3  4  2  0  0  0  0
  3 23  1  0  0  0  0
  4 28  1  0  0  0  0
  5  4  1  6  0  0  0
  5  6  1  0  0  0  0
  5 20  1  0  0  0  0
  5 21  1  0  0  0  0
  6  7  1  0  0  0  0
  6 29  1  0  0  0  0
  6 30  1  0  0  0  0
  7  8  1  0  0  0  0
  7 31  1  0  0  0  0
  7 32  1  0  0  0  0
  8  9  1  0  0  0  0
  8 10  1  0  0  0  0
  9 33  1  0  0  0  0
  9 34  1  0  0  0  0
  9 35  1  0  0  0  0
 10 11  1  0  0  0  0
 10 21  1  0  0  0  0
 10 36  1  1  0  0  0
 11 12  1  0  0  0  0
 11 37  1  0  0  0  0
 11 38  1  0  0  0  0
 12 13  1  0  0  0  0
 12 20  2  0  0  0  0
 13 14  2  0  0  0  0
 13 39  1  0  0  0  0
 14 15  1  0  0  0  0
 14 40  1  0  0  0  0
 15 16  1  0  0  0  0
 15 18  2  0  0  0  0
 16 17  1  0  0  0  0
 17 41  1  0  0  0  0
 17 42  1  0  0  0  0
 17 43  1  0  0  0  0
 18 19  1  0  0  0  0
 18 20  1  0  0  0  0
 19 44  1  0  0  0  0
 21 22  2  0  0  0  0
 22 23  1  0  0  0  0
 22 45  1  0  0  0  0
 23 24  2  0  0  0  0
M  END
$$$$
