CHEBI:5353
 OpenBabel04242411043D

 64 69  0  0  0  0  0  0  0  0999 V2000
    7.2748   -7.4821   -6.6322 C   0  0  0  0  0  0  0  0  0  0  0  0
    7.9761   -8.7213   -6.5665 O   0  0  0  0  0  0  0  0  0  0  0  0
    9.0630   -8.7382   -5.7366 C   0  0  0  0  0  0  0  0  0  0  0  0
   10.0584   -9.6591   -6.0685 C   0  0  0  0  0  0  0  0  0  0  0  0
   11.2241   -9.7521   -5.2994 C   0  0  0  0  0  0  0  0  0  0  0  0
   12.1821  -10.6517   -5.6698 O   0  0  0  0  0  0  0  0  0  0  0  0
   11.3976   -8.9344   -4.1768 C   0  0  0  0  0  0  0  0  0  0  0  0
   12.6102   -8.9517   -3.3234 C   0  0  0  0  0  0  0  0  0  0  0  0
   13.5868   -9.6635   -3.5185 O   0  0  0  0  0  0  0  0  0  0  0  0
   12.6196   -8.0293   -2.1700 C   0  0  0  0  0  0  0  0  0  0  0  0
   11.5647   -7.2347   -1.9509 C   0  0  0  0  0  0  0  0  0  0  0  0
   11.4956   -6.3069   -0.8072 C   0  0  0  0  0  0  0  0  0  0  0  0
   10.3459   -6.2578   -0.0433 C   0  0  0  0  0  0  0  0  0  0  0  0
   10.2338   -5.2953    0.9479 C   0  0  0  0  0  0  0  0  0  0  0  0
   11.2786   -4.3824    1.2341 C   0  0  0  0  0  0  0  0  0  0  0  0
   11.0298   -3.3374    2.0785 O   0  0  0  0  0  0  0  0  0  0  0  0
    9.7704   -3.2414    2.7345 C   0  0  0  0  0  0  0  0  0  0  0  0
   12.5436   -4.4739    0.5851 C   0  0  0  0  0  0  0  0  0  0  0  0
   13.8378   -3.6381    0.8593 C   0  0  0  0  0  0  0  0  0  0  0  0
   15.0719   -3.9672    0.2051 C   0  0  0  0  0  0  0  0  0  0  0  0
   15.2597   -5.1931   -0.3954 O   0  0  0  0  0  0  0  0  0  0  0  0
   16.2073   -3.1415    0.1946 C   0  0  0  0  0  0  0  0  0  0  0  0
   16.2039   -1.9613    0.9060 C   0  0  0  0  0  0  0  0  0  0  0  0
   17.3222   -1.1812    0.8960 O   0  0  0  0  0  0  0  0  0  0  0  0
   15.1022   -1.6501    1.6962 C   0  0  0  0  0  0  0  0  0  0  0  0
   15.1162   -0.4284    2.5323 C   0  0  0  0  0  0  0  0  0  0  0  0
   15.8615    0.5280    2.3640 O   0  0  0  0  0  0  0  0  0  0  0  0
   14.1568   -0.3824    3.6317 C   0  0  0  0  0  0  0  0  0  0  0  0
   13.1860   -1.2973    3.6684 C   0  0  0  0  0  0  0  0  0  0  0  0
   12.1847   -1.2863    4.7579 C   0  0  0  0  0  0  0  0  0  0  0  0
   11.6493   -0.0812    5.2493 C   0  0  0  0  0  0  0  0  0  0  0  0
   10.6784   -0.0780    6.2560 C   0  0  0  0  0  0  0  0  0  0  0  0
   10.2243   -1.2861    6.7686 C   0  0  0  0  0  0  0  0  0  0  0  0
    9.2565   -1.3316    7.7271 O   0  0  0  0  0  0  0  0  0  0  0  0
   10.7407   -2.4901    6.3076 C   0  0  0  0  0  0  0  0  0  0  0  0
   11.7242   -2.4898    5.3126 C   0  0  0  0  0  0  0  0  0  0  0  0
   13.0221   -2.2914    2.7165 O   0  0  0  0  0  0  0  0  0  0  0  0
   13.9669   -2.5056    1.7314 C   0  0  0  0  0  0  0  0  0  0  0  0
   12.5395   -5.4114   -0.4971 C   0  0  0  0  0  0  0  0  0  0  0  0
   10.4322   -7.2166   -2.7414 O   0  0  0  0  0  0  0  0  0  0  0  0
   10.3784   -8.0442   -3.8339 C   0  0  0  0  0  0  0  0  0  0  0  0
    9.2151   -7.9444   -4.6042 C   0  0  0  0  0  0  0  0  0  0  0  0
    6.5586   -7.5468   -7.4568 H   0  0  0  0  0  0  0  0  0  0  0  0
    7.9570   -6.6516   -6.8455 H   0  0  0  0  0  0  0  0  0  0  0  0
    6.7078   -7.2989   -5.7141 H   0  0  0  0  0  0  0  0  0  0  0  0
    9.9154  -10.2876   -6.9435 H   0  0  0  0  0  0  0  0  0  0  0  0
   11.8977  -11.1424   -6.4573 H   0  0  0  0  0  0  0  0  0  0  0  0
   13.4979   -8.0522   -1.5370 H   0  0  0  0  0  0  0  0  0  0  0  0
    9.5095   -6.9232   -0.2418 H   0  0  0  0  0  0  0  0  0  0  0  0
    9.2815   -5.2587    1.4670 H   0  0  0  0  0  0  0  0  0  0  0  0
    9.7464   -2.3005    3.2894 H   0  0  0  0  0  0  0  0  0  0  0  0
    9.6507   -4.0624    3.4493 H   0  0  0  0  0  0  0  0  0  0  0  0
    8.9386   -3.2019    2.0244 H   0  0  0  0  0  0  0  0  0  0  0  0
   16.1695   -5.2846   -0.7230 H   0  0  0  0  0  0  0  0  0  0  0  0
   17.0991   -3.4373   -0.3491 H   0  0  0  0  0  0  0  0  0  0  0  0
   17.9306   -1.4525    0.1915 H   0  0  0  0  0  0  0  0  0  0  0  0
   14.2870    0.4092    4.3569 H   0  0  0  0  0  0  0  0  0  0  0  0
   11.9716    0.8753    4.8427 H   0  0  0  0  0  0  0  0  0  0  0  0
   10.2882    0.8701    6.6130 H   0  0  0  0  0  0  0  0  0  0  0  0
    8.9926   -0.4226    7.9460 H   0  0  0  0  0  0  0  0  0  0  0  0
   10.3728   -3.4289    6.7118 H   0  0  0  0  0  0  0  0  0  0  0  0
   12.1098   -3.4421    4.9532 H   0  0  0  0  0  0  0  0  0  0  0  0
   13.3643   -5.4338   -1.2003 H   0  0  0  0  0  0  0  0  0  0  0  0
    8.4448   -7.2481   -4.2889 H   0  0  0  0  0  0  0  0  0  0  0  0
  1  2  1  0  0  0  0
  1 43  1  0  0  0  0
  1 44  1  0  0  0  0
  1 45  1  0  0  0  0
  2  3  1  0  0  0  0
  3  4  1  0  0  0  0
  3 42  2  0  0  0  0
  4  5  2  0  0  0  0
  4 46  1  0  0  0  0
  5  6  1  0  0  0  0
  5  7  1  0  0  0  0
  6 47  1  0  0  0  0
  7  8  1  0  0  0  0
  7 41  2  0  0  0  0
  8  9  2  0  0  0  0
  8 10  1  0  0  0  0
 10 11  2  0  0  0  0
 10 48  1  0  0  0  0
 11 12  1  0  0  0  0
 11 40  1  0  0  0  0
 12 13  1  0  0  0  0
 12 39  2  0  0  0  0
 13 14  2  0  0  0  0
 13 49  1  0  0  0  0
 14 15  1  0  0  0  0
 14 50  1  0  0  0  0
 15 16  1  0  0  0  0
 15 18  2  0  0  0  0
 16 17  1  0  0  0  0
 17 51  1  0  0  0  0
 17 52  1  0  0  0  0
 17 53  1  0  0  0  0
 18 19  1  0  0  0  0
 18 39  1  0  0  0  0
 19 20  1  0  0  0  0
 19 38  2  0  0  0  0
 20 21  1  0  0  0  0
 20 22  2  0  0  0  0
 21 54  1  0  0  0  0
 22 23  1  0  0  0  0
 22 55  1  0  0  0  0
 23 24  1  0  0  0  0
 23 25  2  0  0  0  0
 24 56  1  0  0  0  0
 25 26  1  0  0  0  0
 25 38  1  0  0  0  0
 26 27  2  0  0  0  0
 26 28  1  0  0  0  0
 28 29  2  0  0  0  0
 28 57  1  0  0  0  0
 29 30  1  0  0  0  0
 29 37  1  0  0  0  0
 30 31  1  0  0  0  0
 30 36  2  0  0  0  0
 31 32  2  0  0  0  0
 31 58  1  0  0  0  0
 32 33  1  0  0  0  0
 32 59  1  0  0  0  0
 33 34  1  0  0  0  0
 33 35  2  0  0  0  0
 34 60  1  0  0  0  0
 35 36  1  0  0  0  0
 35 61  1  0  0  0  0
 36 62  1  0  0  0  0
 37 38  1  0  0  0  0
 39 63  1  0  0  0  0
 40 41  1  0  0  0  0
 41 42  1  0  0  0  0
 42 64  1  0  0  0  0
M  END
$$$$
