CHEBI:17505
 OpenBabel04242416423D

 45 46  0  0  1  0  0  0  0  0999 V2000
    0.6392   -3.5284    2.8408 O   0  0  0  0  0  0  0  0  0  0  0  0
    0.2207   -2.3277    3.4949 C   0  0  0  0  0  0  0  0  0  0  0  0
    0.8198   -1.1094    2.7855 C   0  0  1  0  0  0  0  0  0  0  0  0
    2.2502   -1.2635    2.8284 O   0  0  0  0  0  0  0  0  0  0  0  0
    2.9580   -0.1578    2.2571 C   0  0  2  0  0  0  0  0  0  0  0  0
    2.7295    1.0486    2.9911 O   0  0  0  0  0  0  0  0  0  0  0  0
    3.1686    1.0404    4.3626 C   0  0  2  0  0  0  0  0  0  0  0  0
    2.5889    2.3436    4.9681 C   0  0  1  0  0  0  0  0  0  0  0  0
    2.3579    2.1795    6.3726 O   0  0  0  0  0  0  0  0  0  0  0  0
    3.5098    3.5702    4.7596 C   0  0  2  0  0  0  0  0  0  0  0  0
    2.7191    4.7580    4.5828 O   0  0  0  0  0  0  0  0  0  0  0  0
    4.4607    3.3999    3.5716 C   0  0  1  0  0  0  0  0  0  0  0  0
    5.2648    4.5776    3.4052 O   0  0  0  0  0  0  0  0  0  0  0  0
    5.3914    2.1989    3.7969 C   0  0  2  0  0  0  0  0  0  0  0  0
    5.8977    1.7111    2.5425 O   0  0  0  0  0  0  0  0  0  0  0  0
    4.7023    1.0465    4.5525 C   0  0  2  0  0  0  0  0  0  0  0  0
    5.3090   -0.2027    4.2094 O   0  0  0  0  0  0  0  0  0  0  0  0
    2.5549    0.0487    0.7786 C   0  0  2  0  0  0  0  0  0  0  0  0
    3.1858    1.1998    0.1939 O   0  0  0  0  0  0  0  0  0  0  0  0
    1.0348    0.1944    0.6561 C   0  0  1  0  0  0  0  0  0  0  0  0
    0.6908    0.2357   -0.7410 O   0  0  0  0  0  0  0  0  0  0  0  0
    0.3281   -0.9822    1.3316 C   0  0  1  0  0  0  0  0  0  0  0  0
    0.6147   -2.1499    0.5389 O   0  0  0  0  0  0  0  0  0  0  0  0
    1.6139   -3.5450    2.9446 H   0  0  0  0  0  0  0  0  0  0  0  0
    0.5625   -2.3815    4.5338 H   0  0  0  0  0  0  0  0  0  0  0  0
   -0.8727   -2.2933    3.4853 H   0  0  0  0  0  0  0  0  0  0  0  0
    0.5376   -0.2133    3.3518 H   0  0  0  0  0  0  0  0  0  0  0  0
    4.0228   -0.3909    2.2603 H   0  0  0  0  0  0  0  0  0  0  0  0
    2.7346    0.1703    4.8691 H   0  0  0  0  0  0  0  0  0  0  0  0
    1.6053    2.5408    4.5232 H   0  0  0  0  0  0  0  0  0  0  0  0
    2.0020    3.0268    6.7021 H   0  0  0  0  0  0  0  0  0  0  0  0
    4.0988    3.7598    5.6660 H   0  0  0  0  0  0  0  0  0  0  0  0
    2.1873    4.6467    3.7722 H   0  0  0  0  0  0  0  0  0  0  0  0
    3.8987    3.3027    2.6358 H   0  0  0  0  0  0  0  0  0  0  0  0
    4.6876    5.3375    3.6189 H   0  0  0  0  0  0  0  0  0  0  0  0
    6.2801    2.5047    4.3626 H   0  0  0  0  0  0  0  0  0  0  0  0
    6.1836    2.5017    2.0430 H   0  0  0  0  0  0  0  0  0  0  0  0
    4.8924    1.1798    5.6252 H   0  0  0  0  0  0  0  0  0  0  0  0
    5.8394   -0.0153    3.4043 H   0  0  0  0  0  0  0  0  0  0  0  0
    2.8838   -0.8182    0.1922 H   0  0  0  0  0  0  0  0  0  0  0  0
    2.7067    1.3514   -0.6450 H   0  0  0  0  0  0  0  0  0  0  0  0
    0.7082    1.1469    1.0887 H   0  0  0  0  0  0  0  0  0  0  0  0
    0.6453   -0.7061   -1.0143 H   0  0  0  0  0  0  0  0  0  0  0  0
   -0.7579   -0.8429    1.2963 H   0  0  0  0  0  0  0  0  0  0  0  0
    0.4561   -2.9330    1.1120 H   0  0  0  0  0  0  0  0  0  0  0  0
  1  2  1  0  0  0  0
  1 24  1  0  0  0  0
  2 25  1  0  0  0  0
  2 26  1  0  0  0  0
  3  4  1  0  0  0  0
  3 22  1  0  0  0  0
  3  2  1  0  0  0  0
  3 27  1  1  0  0  0
  4  5  1  0  0  0  0
  5  6  1  0  0  0  0
  5 18  1  0  0  0  0
  5 28  1  1  0  0  0
  6  7  1  0  0  0  0
  7  8  1  0  0  0  0
  7 16  1  0  0  0  0
  7 29  1  1  0  0  0
  8  9  1  0  0  0  0
  8 10  1  0  0  0  0
  8 30  1  6  0  0  0
  9 31  1  0  0  0  0
 10 12  1  0  0  0  0
 10 11  1  0  0  0  0
 10 32  1  1  0  0  0
 11 33  1  0  0  0  0
 12 13  1  0  0  0  0
 12 14  1  0  0  0  0
 12 34  1  6  0  0  0
 13 35  1  0  0  0  0
 14 16  1  0  0  0  0
 14 15  1  0  0  0  0
 14 36  1  1  0  0  0
 15 37  1  0  0  0  0
 16 17  1  0  0  0  0
 16 38  1  1  0  0  0
 17 39  1  0  0  0  0
 18 19  1  0  0  0  0
 18 20  1  0  0  0  0
 18 40  1  6  0  0  0
 19 41  1  0  0  0  0
 20 21  1  0  0  0  0
 20 22  1  0  0  0  0
 20 42  1  1  0  0  0
 21 43  1  0  0  0  0
 22 23  1  0  0  0  0
 22 44  1  6  0  0  0
 23 45  1  0  0  0  0
M  END
$$$$
