CHEBI:18238
 OpenBabel04252409143D

137137  0  0  0  0  0  0  0  0999 V2000
    6.9660  -11.6643    6.4582 C   0  0  0  0  0  0  0  0  0  0  0  0
    6.2580  -11.7380    5.2259 O   0  0  0  0  0  0  0  0  0  0  0  0
    6.7436  -10.9310    4.2021 C   0  0  0  0  0  0  0  0  0  0  0  0
    5.8843  -10.3982    3.3246 C   0  0  0  0  0  0  0  0  0  0  0  0
    4.5125  -10.5836    3.4421 O   0  0  0  0  0  0  0  0  0  0  0  0
    6.3496   -9.6008    2.1661 C   0  0  0  0  0  0  0  0  0  0  0  0
    5.5186   -9.2239    1.3407 O   0  0  0  0  0  0  0  0  0  0  0  0
    7.7838   -9.2310    2.0803 C   0  0  0  0  0  0  0  0  0  0  0  0
    8.1308   -8.3401    0.9228 C   0  0  0  0  0  0  0  0  0  0  0  0
    8.6491   -9.6793    3.0106 C   0  0  0  0  0  0  0  0  0  0  0  0
   10.1064   -9.2967    3.1162 C   0  0  0  0  0  0  0  0  0  0  0  0
   10.4551   -7.8291    3.2280 C   0  0  0  0  0  0  0  0  0  0  0  0
    9.7766   -6.7483    3.6699 C   0  0  0  0  0  0  0  0  0  0  0  0
    8.3835   -6.7571    4.2356 C   0  0  0  0  0  0  0  0  0  0  0  0
   10.4484   -5.3810    3.6315 C   0  0  0  0  0  0  0  0  0  0  0  0
   10.8697   -4.8377    5.0056 C   0  0  0  0  0  0  0  0  0  0  0  0
   11.9177   -5.6770    5.6917 C   0  0  0  0  0  0  0  0  0  0  0  0
   11.7417   -6.5740    6.6863 C   0  0  0  0  0  0  0  0  0  0  0  0
   10.3965   -6.8986    7.2721 C   0  0  0  0  0  0  0  0  0  0  0  0
   12.9657   -7.2628    7.2768 C   0  0  0  0  0  0  0  0  0  0  0  0
   12.7867   -8.5805    8.0521 C   0  0  0  0  0  0  0  0  0  0  0  0
   12.6720   -9.8256    7.2104 C   0  0  0  0  0  0  0  0  0  0  0  0
   11.6276  -10.6746    7.1300 C   0  0  0  0  0  0  0  0  0  0  0  0
   10.2956  -10.4547    7.7983 C   0  0  0  0  0  0  0  0  0  0  0  0
   11.6878  -11.9965    6.3806 C   0  0  0  0  0  0  0  0  0  0  0  0
   12.5378  -12.0711    5.1056 C   0  0  0  0  0  0  0  0  0  0  0  0
   12.1873  -13.3166    4.3298 C   0  0  0  0  0  0  0  0  0  0  0  0
   12.6928  -14.5529    4.5116 C   0  0  0  0  0  0  0  0  0  0  0  0
   13.7356  -14.8850    5.5448 C   0  0  0  0  0  0  0  0  0  0  0  0
   12.1338  -15.7388    3.7404 C   0  0  0  0  0  0  0  0  0  0  0  0
   13.1473  -16.3860    2.7926 C   0  0  0  0  0  0  0  0  0  0  0  0
   12.7222  -17.5640    1.9466 C   0  0  0  0  0  0  0  0  0  0  0  0
   11.6808  -18.4193    2.0240 C   0  0  0  0  0  0  0  0  0  0  0  0
   10.6159  -18.3974    3.0850 C   0  0  0  0  0  0  0  0  0  0  0  0
   11.5441  -19.5292    0.9903 C   0  0  0  0  0  0  0  0  0  0  0  0
   11.8187  -20.9165    1.5897 C   0  0  0  0  0  0  0  0  0  0  0  0
   11.9354  -21.9980    0.5435 C   0  0  0  0  0  0  0  0  0  0  0  0
   12.4738  -23.2200    0.7447 C   0  0  0  0  0  0  0  0  0  0  0  0
   12.9729  -23.6681    2.0949 C   0  0  0  0  0  0  0  0  0  0  0  0
   12.4790  -24.2551   -0.3730 C   0  0  0  0  0  0  0  0  0  0  0  0
   13.7082  -25.1787   -0.4684 C   0  0  0  0  0  0  0  0  0  0  0  0
   14.7132  -24.8214   -1.5326 C   0  0  0  0  0  0  0  0  0  0  0  0
   15.8664  -24.1369   -1.3917 C   0  0  0  0  0  0  0  0  0  0  0  0
   16.8235  -24.0080   -2.5499 C   0  0  0  0  0  0  0  0  0  0  0  0
   16.3124  -23.4611   -0.1111 C   0  0  0  0  0  0  0  0  0  0  0  0
   16.1857  -21.9346   -0.2074 C   0  0  0  0  0  0  0  0  0  0  0  0
   16.0600  -21.2674    1.1354 C   0  0  0  0  0  0  0  0  0  0  0  0
   17.0326  -20.7392    1.9051 C   0  0  0  0  0  0  0  0  0  0  0  0
   18.4961  -20.7757    1.5587 C   0  0  0  0  0  0  0  0  0  0  0  0
   16.6713  -20.0124    3.1965 C   0  0  0  0  0  0  0  0  0  0  0  0
   17.1001  -20.7672    4.4616 C   0  0  0  0  0  0  0  0  0  0  0  0
   17.0228  -20.0789    5.8056 C   0  0  0  0  0  0  0  0  0  0  0  0
   16.2799  -19.0572    6.2757 C   0  0  0  0  0  0  0  0  0  0  0  0
   15.1942  -18.3310    5.5401 C   0  0  0  0  0  0  0  0  0  0  0  0
   16.4896  -18.5548    7.6850 C   0  0  0  0  0  0  0  0  0  0  0  0
    8.2041  -10.7226    3.9844 C   0  0  0  0  0  0  0  0  0  0  0  0
    9.0364  -11.4210    4.5570 O   0  0  0  0  0  0  0  0  0  0  0  0
    6.3118  -12.0546    7.2439 H   0  0  0  0  0  0  0  0  0  0  0  0
    7.2195  -10.6312    6.7167 H   0  0  0  0  0  0  0  0  0  0  0  0
    7.8567  -12.2985    6.4380 H   0  0  0  0  0  0  0  0  0  0  0  0
    4.1238  -10.1396    2.6590 H   0  0  0  0  0  0  0  0  0  0  0  0
    7.6706   -7.3545    1.0434 H   0  0  0  0  0  0  0  0  0  0  0  0
    9.2077   -8.2004    0.7983 H   0  0  0  0  0  0  0  0  0  0  0  0
    7.7687   -8.7783   -0.0139 H   0  0  0  0  0  0  0  0  0  0  0  0
   10.6185   -9.7027    2.2337 H   0  0  0  0  0  0  0  0  0  0  0  0
   10.5861   -9.7748    3.9765 H   0  0  0  0  0  0  0  0  0  0  0  0
   11.4845   -7.6535    2.9057 H   0  0  0  0  0  0  0  0  0  0  0  0
    7.6504   -6.5727    3.4452 H   0  0  0  0  0  0  0  0  0  0  0  0
    8.2511   -5.9716    4.9854 H   0  0  0  0  0  0  0  0  0  0  0  0
    8.1490   -7.6968    4.7415 H   0  0  0  0  0  0  0  0  0  0  0  0
    9.7567   -4.6684    3.1636 H   0  0  0  0  0  0  0  0  0  0  0  0
   11.3296   -5.4038    2.9764 H   0  0  0  0  0  0  0  0  0  0  0  0
    9.9942   -4.6772    5.6405 H   0  0  0  0  0  0  0  0  0  0  0  0
   11.2949   -3.8352    4.8638 H   0  0  0  0  0  0  0  0  0  0  0  0
   12.9308   -5.4991    5.3308 H   0  0  0  0  0  0  0  0  0  0  0  0
   10.4439   -6.9629    8.3626 H   0  0  0  0  0  0  0  0  0  0  0  0
   10.0385   -7.8490    6.8693 H   0  0  0  0  0  0  0  0  0  0  0  0
    9.6341   -6.1488    7.0534 H   0  0  0  0  0  0  0  0  0  0  0  0
   13.4044   -6.5445    7.9836 H   0  0  0  0  0  0  0  0  0  0  0  0
   13.7173   -7.4175    6.4909 H   0  0  0  0  0  0  0  0  0  0  0  0
   11.9837   -8.4950    8.7869 H   0  0  0  0  0  0  0  0  0  0  0  0
   13.6919   -8.7189    8.6604 H   0  0  0  0  0  0  0  0  0  0  0  0
   13.5940  -10.0857    6.6926 H   0  0  0  0  0  0  0  0  0  0  0  0
    9.5506  -10.2030    7.0369 H   0  0  0  0  0  0  0  0  0  0  0  0
   10.2940   -9.6545    8.5386 H   0  0  0  0  0  0  0  0  0  0  0  0
    9.9663  -11.3636    8.3122 H   0  0  0  0  0  0  0  0  0  0  0  0
   10.6638  -12.2953    6.1278 H   0  0  0  0  0  0  0  0  0  0  0  0
   12.0358  -12.7576    7.0923 H   0  0  0  0  0  0  0  0  0  0  0  0
   13.6073  -12.0447    5.3409 H   0  0  0  0  0  0  0  0  0  0  0  0
   12.3477  -11.2042    4.4628 H   0  0  0  0  0  0  0  0  0  0  0  0
   11.3927  -13.1743    3.5967 H   0  0  0  0  0  0  0  0  0  0  0  0
   14.6805  -15.1461    5.0606 H   0  0  0  0  0  0  0  0  0  0  0  0
   13.4052  -15.7322    6.1545 H   0  0  0  0  0  0  0  0  0  0  0  0
   13.9367  -14.0627    6.2356 H   0  0  0  0  0  0  0  0  0  0  0  0
   11.2532  -15.4306    3.1625 H   0  0  0  0  0  0  0  0  0  0  0  0
   11.7848  -16.4649    4.4819 H   0  0  0  0  0  0  0  0  0  0  0  0
   14.0306  -16.7050    3.3566 H   0  0  0  0  0  0  0  0  0  0  0  0
   13.4986  -15.6095    2.0997 H   0  0  0  0  0  0  0  0  0  0  0  0
   13.4313  -17.7337    1.1326 H   0  0  0  0  0  0  0  0  0  0  0  0
    9.8882  -19.2036    2.9430 H   0  0  0  0  0  0  0  0  0  0  0  0
   11.0551  -18.5425    4.0769 H   0  0  0  0  0  0  0  0  0  0  0  0
   10.0487  -17.4631    3.0572 H   0  0  0  0  0  0  0  0  0  0  0  0
   12.2279  -19.3532    0.1497 H   0  0  0  0  0  0  0  0  0  0  0  0
   10.5328  -19.4978    0.5636 H   0  0  0  0  0  0  0  0  0  0  0  0
   11.0016  -21.1827    2.2714 H   0  0  0  0  0  0  0  0  0  0  0  0
   12.7422  -20.8717    2.1790 H   0  0  0  0  0  0  0  0  0  0  0  0
   11.5200  -21.7633   -0.4356 H   0  0  0  0  0  0  0  0  0  0  0  0
   12.6773  -24.7037    2.2911 H   0  0  0  0  0  0  0  0  0  0  0  0
   12.5685  -23.0699    2.9164 H   0  0  0  0  0  0  0  0  0  0  0  0
   14.0621  -23.6010    2.1447 H   0  0  0  0  0  0  0  0  0  0  0  0
   12.2989  -23.7750   -1.3438 H   0  0  0  0  0  0  0  0  0  0  0  0
   11.6056  -24.8964   -0.1891 H   0  0  0  0  0  0  0  0  0  0  0  0
   13.3398  -26.1791   -0.7382 H   0  0  0  0  0  0  0  0  0  0  0  0
   14.1972  -25.3287    0.4976 H   0  0  0  0  0  0  0  0  0  0  0  0
   14.4800  -25.2394   -2.5124 H   0  0  0  0  0  0  0  0  0  0  0  0
   17.8010  -24.4191   -2.2746 H   0  0  0  0  0  0  0  0  0  0  0  0
   16.9534  -22.9599   -2.8344 H   0  0  0  0  0  0  0  0  0  0  0  0
   16.4795  -24.5539   -3.4350 H   0  0  0  0  0  0  0  0  0  0  0  0
   17.3545  -23.7334    0.1007 H   0  0  0  0  0  0  0  0  0  0  0  0
   15.7430  -23.8346    0.7424 H   0  0  0  0  0  0  0  0  0  0  0  0
   15.2884  -21.6663   -0.7816 H   0  0  0  0  0  0  0  0  0  0  0  0
   17.0255  -21.5219   -0.7772 H   0  0  0  0  0  0  0  0  0  0  0  0
   15.0296  -21.1919    1.4812 H   0  0  0  0  0  0  0  0  0  0  0  0
   18.9112  -19.7630    1.5574 H   0  0  0  0  0  0  0  0  0  0  0  0
   18.6946  -21.2116    0.5765 H   0  0  0  0  0  0  0  0  0  0  0  0
   19.0471  -21.3762    2.2889 H   0  0  0  0  0  0  0  0  0  0  0  0
   15.5880  -19.8614    3.2138 H   0  0  0  0  0  0  0  0  0  0  0  0
   17.1232  -19.0128    3.1757 H   0  0  0  0  0  0  0  0  0  0  0  0
   18.1551  -21.0470    4.3436 H   0  0  0  0  0  0  0  0  0  0  0  0
   16.5474  -21.7123    4.5311 H   0  0  0  0  0  0  0  0  0  0  0  0
   17.7384  -20.5151    6.5066 H   0  0  0  0  0  0  0  0  0  0  0  0
   14.7061  -18.9455    4.7848 H   0  0  0  0  0  0  0  0  0  0  0  0
   15.5982  -17.4273    5.0755 H   0  0  0  0  0  0  0  0  0  0  0  0
   14.3972  -18.0325    6.2305 H   0  0  0  0  0  0  0  0  0  0  0  0
   17.2831  -19.0963    8.2104 H   0  0  0  0  0  0  0  0  0  0  0  0
   15.5704  -18.6677    8.2697 H   0  0  0  0  0  0  0  0  0  0  0  0
   16.7645  -17.4948    7.6708 H   0  0  0  0  0  0  0  0  0  0  0  0
  1  2  1  0  0  0  0
  1 58  1  0  0  0  0
  1 59  1  0  0  0  0
  1 60  1  0  0  0  0
  2  3  1  0  0  0  0
  3  4  2  0  0  0  0
  3 56  1  0  0  0  0
  4  5  1  0  0  0  0
  4  6  1  0  0  0  0
  5 61  1  0  0  0  0
  6  7  2  0  0  0  0
  6  8  1  0  0  0  0
  8  9  1  0  0  0  0
  8 10  2  0  0  0  0
  9 62  1  0  0  0  0
  9 63  1  0  0  0  0
  9 64  1  0  0  0  0
 10 11  1  0  0  0  0
 10 56  1  0  0  0  0
 11 12  1  0  0  0  0
 11 65  1  0  0  0  0
 11 66  1  0  0  0  0
 12 13  2  0  0  0  0
 12 67  1  0  0  0  0
 13 14  1  0  0  0  0
 13 15  1  0  0  0  0
 14 68  1  0  0  0  0
 14 69  1  0  0  0  0
 14 70  1  0  0  0  0
 15 16  1  0  0  0  0
 15 71  1  0  0  0  0
 15 72  1  0  0  0  0
 16 17  1  0  0  0  0
 16 73  1  0  0  0  0
 16 74  1  0  0  0  0
 17 18  2  0  0  0  0
 17 75  1  0  0  0  0
 18 19  1  0  0  0  0
 18 20  1  0  0  0  0
 19 76  1  0  0  0  0
 19 77  1  0  0  0  0
 19 78  1  0  0  0  0
 20 21  1  0  0  0  0
 20 79  1  0  0  0  0
 20 80  1  0  0  0  0
 21 22  1  0  0  0  0
 21 81  1  0  0  0  0
 21 82  1  0  0  0  0
 22 23  2  0  0  0  0
 22 83  1  0  0  0  0
 23 24  1  0  0  0  0
 23 25  1  0  0  0  0
 24 84  1  0  0  0  0
 24 85  1  0  0  0  0
 24 86  1  0  0  0  0
 25 26  1  0  0  0  0
 25 87  1  0  0  0  0
 25 88  1  0  0  0  0
 26 27  1  0  0  0  0
 26 89  1  0  0  0  0
 26 90  1  0  0  0  0
 27 28  2  0  0  0  0
 27 91  1  0  0  0  0
 28 29  1  0  0  0  0
 28 30  1  0  0  0  0
 29 92  1  0  0  0  0
 29 93  1  0  0  0  0
 29 94  1  0  0  0  0
 30 31  1  0  0  0  0
 30 95  1  0  0  0  0
 30 96  1  0  0  0  0
 31 32  1  0  0  0  0
 31 97  1  0  0  0  0
 31 98  1  0  0  0  0
 32 33  2  0  0  0  0
 32 99  1  0  0  0  0
 33 34  1  0  0  0  0
 33 35  1  0  0  0  0
 34100  1  0  0  0  0
 34101  1  0  0  0  0
 34102  1  0  0  0  0
 35 36  1  0  0  0  0
 35103  1  0  0  0  0
 35104  1  0  0  0  0
 36 37  1  0  0  0  0
 36105  1  0  0  0  0
 36106  1  0  0  0  0
 37 38  2  0  0  0  0
 37107  1  0  0  0  0
 38 39  1  0  0  0  0
 38 40  1  0  0  0  0
 39108  1  0  0  0  0
 39109  1  0  0  0  0
 39110  1  0  0  0  0
 40 41  1  0  0  0  0
 40111  1  0  0  0  0
 40112  1  0  0  0  0
 41 42  1  0  0  0  0
 41113  1  0  0  0  0
 41114  1  0  0  0  0
 42 43  2  0  0  0  0
 42115  1  0  0  0  0
 43 44  1  0  0  0  0
 43 45  1  0  0  0  0
 44116  1  0  0  0  0
 44117  1  0  0  0  0
 44118  1  0  0  0  0
 45 46  1  0  0  0  0
 45119  1  0  0  0  0
 45120  1  0  0  0  0
 46 47  1  0  0  0  0
 46121  1  0  0  0  0
 46122  1  0  0  0  0
 47 48  2  0  0  0  0
 47123  1  0  0  0  0
 48 49  1  0  0  0  0
 48 50  1  0  0  0  0
 49124  1  0  0  0  0
 49125  1  0  0  0  0
 49126  1  0  0  0  0
 50 51  1  0  0  0  0
 50127  1  0  0  0  0
 50128  1  0  0  0  0
 51 52  1  0  0  0  0
 51129  1  0  0  0  0
 51130  1  0  0  0  0
 52 53  2  0  0  0  0
 52131  1  0  0  0  0
 53 54  1  0  0  0  0
 53 55  1  0  0  0  0
 54132  1  0  0  0  0
 54133  1  0  0  0  0
 54134  1  0  0  0  0
 55135  1  0  0  0  0
 55136  1  0  0  0  0
 55137  1  0  0  0  0
 56 57  2  0  0  0  0
M  END
$$$$
