CHEBI:16765
 OpenBabel04242415113D

 24 25  0  0  0  0  0  0  0  0999 V2000
    1.6283   -0.4481   -2.3517 N   0  0  0  0  0  0  0  0  0  0  0  0
    3.0452   -0.0793   -2.3241 C   0  0  0  0  0  0  0  0  0  0  0  0
    3.5635    0.0627   -0.8882 C   0  0  0  0  0  0  0  0  0  0  0  0
    5.0069    0.4595   -0.8469 C   0  0  0  0  0  0  0  0  0  0  0  0
    5.5013    1.7475   -0.7714 C   0  0  0  0  0  0  0  0  0  0  0  0
    6.8685    1.6836   -0.7564 N   0  0  0  0  0  0  0  0  0  0  0  0
    7.2851    0.3749   -0.8215 C   0  0  0  0  0  0  0  0  0  0  0  0
    8.5790   -0.1604   -0.8324 C   0  0  0  0  0  0  0  0  0  0  0  0
    8.7044   -1.5508   -0.9030 C   0  0  0  0  0  0  0  0  0  0  0  0
    7.5797   -2.3701   -0.9611 C   0  0  0  0  0  0  0  0  0  0  0  0
    6.2935   -1.8178   -0.9503 C   0  0  0  0  0  0  0  0  0  0  0  0
    6.1387   -0.4180   -0.8782 C   0  0  0  0  0  0  0  0  0  0  0  0
    1.3178   -0.4972   -3.3215 H   0  0  0  0  0  0  0  0  0  0  0  0
    1.0773    0.2897   -1.9146 H   0  0  0  0  0  0  0  0  0  0  0  0
    3.1791    0.8622   -2.8697 H   0  0  0  0  0  0  0  0  0  0  0  0
    3.6189   -0.8458   -2.8575 H   0  0  0  0  0  0  0  0  0  0  0  0
    3.4282   -0.8824   -0.3472 H   0  0  0  0  0  0  0  0  0  0  0  0
    2.9690    0.8138   -0.3518 H   0  0  0  0  0  0  0  0  0  0  0  0
    4.9952    2.7025   -0.7253 H   0  0  0  0  0  0  0  0  0  0  0  0
    7.4890    2.4789   -0.7034 H   0  0  0  0  0  0  0  0  0  0  0  0
    9.4571    0.4750   -0.7864 H   0  0  0  0  0  0  0  0  0  0  0  0
    9.6955   -1.9985   -0.9116 H   0  0  0  0  0  0  0  0  0  0  0  0
    7.6987   -3.4494   -1.0145 H   0  0  0  0  0  0  0  0  0  0  0  0
    5.4233   -2.4661   -0.9952 H   0  0  0  0  0  0  0  0  0  0  0  0
  1  2  1  0  0  0  0
  1 13  1  0  0  0  0
  1 14  1  0  0  0  0
  2  3  1  0  0  0  0
  2 15  1  0  0  0  0
  2 16  1  0  0  0  0
  3  4  1  0  0  0  0
  3 17  1  0  0  0  0
  3 18  1  0  0  0  0
  4  5  2  0  0  0  0
  4 12  1  0  0  0  0
  5  6  1  0  0  0  0
  5 19  1  0  0  0  0
  6  7  1  0  0  0  0
  6 20  1  0  0  0  0
  7  8  1  0  0  0  0
  7 12  2  0  0  0  0
  8  9  2  0  0  0  0
  8 21  1  0  0  0  0
  9 10  1  0  0  0  0
  9 22  1  0  0  0  0
 10 11  2  0  0  0  0
 10 23  1  0  0  0  0
 11 12  1  0  0  0  0
 11 24  1  0  0  0  0
M  END
$$$$
