CHEBI:17033
 OpenBabel04242415443D

 77 80  0  0  0  0  0  0  0  0999 V2000
    1.7962    2.0941   -1.1763 C   0  0  0  0  0  0  0  0  0  0  0  0
    3.0255    1.5710   -1.1035 C   0  0  0  0  0  0  0  0  0  0  0  0
    3.5745    0.5748   -1.9840 C   0  0  0  0  0  0  0  0  0  0  0  0
    3.5073    0.4083   -3.3237 C   0  0  0  0  0  0  0  0  0  0  0  0
    2.8029    1.2572   -4.3287 C   0  0  0  0  0  0  0  0  0  0  0  0
    4.2947   -0.7482   -3.7245 C   0  0  0  0  0  0  0  0  0  0  0  0
    4.4723   -1.2485   -4.9509 C   0  0  0  0  0  0  0  0  0  0  0  0
    5.3119   -2.4355   -5.2097 C   0  0  0  0  0  0  0  0  0  0  0  0
    5.5007   -3.4300   -4.3922 N   0  0  0  0  0  0  0  0  0  0  0  0
    6.2722   -4.3398   -5.0887 C   0  0  0  0  0  0  0  0  0  0  0  0
    6.7418   -5.4992   -4.5926 C   0  0  0  0  0  0  0  0  0  0  0  0
    6.5607   -5.9469   -3.2491 C   0  0  0  0  0  0  0  0  0  0  0  0
    5.7729   -5.2196   -2.3892 N   0  0  0  0  0  0  0  0  0  0  0  0
    5.8190   -5.7455   -1.1270 C   0  0  0  0  0  0  0  0  0  0  0  0
    5.1017   -5.0733   -0.1096 C   0  0  0  0  0  0  0  0  0  0  0  0
    5.6569   -4.1001    0.6229 C   0  0  0  0  0  0  0  0  0  0  0  0
    6.9459   -3.6702    0.5162 N   0  0  0  0  0  0  0  0  0  0  0  0
    7.2193   -2.6614    1.4027 C   0  0  0  0  0  0  0  0  0  0  0  0
    8.2793   -2.0890    1.5723 O   0  0  0  0  0  0  0  0  0  0  0  0
    5.9600   -2.4233    2.1504 C   0  0  0  0  0  0  0  0  0  0  0  0
    5.8736   -1.3440    3.1611 C   0  0  0  0  0  0  0  0  0  0  0  0
    5.0454   -3.2933    1.6710 C   0  0  0  0  0  0  0  0  0  0  0  0
    3.6863   -3.3426    2.1687 C   0  0  0  0  0  0  0  0  0  0  0  0
    2.6015   -3.1964    1.3979 C   0  0  0  0  0  0  0  0  0  0  0  0
    6.6046   -6.8817   -1.1685 C   0  0  0  0  0  0  0  0  0  0  0  0
    6.9492   -7.7668   -0.0208 C   0  0  0  0  0  0  0  0  0  0  0  0
    7.0438   -7.0350   -2.5314 C   0  0  0  0  0  0  0  0  0  0  0  0
    7.8797   -8.1632   -3.0601 C   0  0  0  0  0  0  0  0  0  0  0  0
    7.0014   -9.3339   -3.4973 C   0  0  0  0  0  0  0  0  0  0  0  0
    7.8232  -10.4614   -4.0620 C   0  0  0  0  0  0  0  0  0  0  0  0
    9.0293  -10.4367   -4.2443 O   0  0  0  0  0  0  0  0  0  0  0  0
    7.0655  -11.5367   -4.3836 O   0  0  0  0  0  0  0  0  0  0  0  0
    6.5104   -3.7986   -6.4201 C   0  0  0  0  0  0  0  0  0  0  0  0
    7.3099   -4.4874   -7.4898 C   0  0  0  0  0  0  0  0  0  0  0  0
    6.5660   -5.6044   -8.2301 C   0  0  0  0  0  0  0  0  0  0  0  0
    5.5018   -5.0881   -9.1759 C   0  0  0  0  0  0  0  0  0  0  0  0
    4.7604   -4.1442   -8.9552 O   0  0  0  0  0  0  0  0  0  0  0  0
    5.4026   -5.8093  -10.3156 O   0  0  0  0  0  0  0  0  0  0  0  0
    5.9660   -2.5748   -6.5187 C   0  0  0  0  0  0  0  0  0  0  0  0
    6.0194   -1.5534   -7.5898 C   0  0  0  0  0  0  0  0  0  0  0  0
    4.8573   -1.2280   -2.5835 N   0  0  0  0  0  0  0  0  0  0  0  0
    4.5001   -0.4901   -1.4837 C   0  0  0  0  0  0  0  0  0  0  0  0
    4.8561   -0.6502   -0.3339 O   0  0  0  0  0  0  0  0  0  0  0  0
    1.4679    2.8206   -0.4390 H   0  0  0  0  0  0  0  0  0  0  0  0
    1.0836    1.8073   -1.9418 H   0  0  0  0  0  0  0  0  0  0  0  0
    3.6742    1.8643   -0.2781 H   0  0  0  0  0  0  0  0  0  0  0  0
    2.3968    2.1745   -3.8954 H   0  0  0  0  0  0  0  0  0  0  0  0
    1.9748    0.7046   -4.7843 H   0  0  0  0  0  0  0  0  0  0  0  0
    3.4912    1.5673   -5.1226 H   0  0  0  0  0  0  0  0  0  0  0  0
    3.9968   -0.7980   -5.8136 H   0  0  0  0  0  0  0  0  0  0  0  0
    7.3526   -6.1347   -5.2248 H   0  0  0  0  0  0  0  0  0  0  0  0
    5.2771   -4.3796   -2.6676 H   0  0  0  0  0  0  0  0  0  0  0  0
    4.0688   -5.3652    0.0537 H   0  0  0  0  0  0  0  0  0  0  0  0
    7.6305   -4.0503   -0.1203 H   0  0  0  0  0  0  0  0  0  0  0  0
    6.5813   -1.5231    3.9763 H   0  0  0  0  0  0  0  0  0  0  0  0
    4.8738   -1.2640    3.5979 H   0  0  0  0  0  0  0  0  0  0  0  0
    6.1112   -0.3771    2.7050 H   0  0  0  0  0  0  0  0  0  0  0  0
    3.5676   -3.4729    3.2420 H   0  0  0  0  0  0  0  0  0  0  0  0
    2.6804   -3.0192    0.3293 H   0  0  0  0  0  0  0  0  0  0  0  0
    1.6072   -3.2198    1.8310 H   0  0  0  0  0  0  0  0  0  0  0  0
    6.3909   -7.4989    0.8816 H   0  0  0  0  0  0  0  0  0  0  0  0
    8.0171   -7.6859    0.2077 H   0  0  0  0  0  0  0  0  0  0  0  0
    6.7235   -8.8112   -0.2564 H   0  0  0  0  0  0  0  0  0  0  0  0
    8.5882   -8.4929   -2.2898 H   0  0  0  0  0  0  0  0  0  0  0  0
    8.4926   -7.8145   -3.9001 H   0  0  0  0  0  0  0  0  0  0  0  0
    6.2944   -9.0085   -4.2694 H   0  0  0  0  0  0  0  0  0  0  0  0
    6.4330   -9.7157   -2.6413 H   0  0  0  0  0  0  0  0  0  0  0  0
    6.1164  -11.4228   -4.1835 H   0  0  0  0  0  0  0  0  0  0  0  0
    8.2213   -4.9029   -7.0416 H   0  0  0  0  0  0  0  0  0  0  0  0
    7.6645   -3.7576   -8.2275 H   0  0  0  0  0  0  0  0  0  0  0  0
    6.0996   -6.3170   -7.5426 H   0  0  0  0  0  0  0  0  0  0  0  0
    7.3130   -6.1504   -8.8190 H   0  0  0  0  0  0  0  0  0  0  0  0
    6.0213   -6.5597  -10.3869 H   0  0  0  0  0  0  0  0  0  0  0  0
    6.9306   -1.6450   -8.1884 H   0  0  0  0  0  0  0  0  0  0  0  0
    6.0274   -0.5415   -7.1723 H   0  0  0  0  0  0  0  0  0  0  0  0
    5.1567   -1.6387   -8.2556 H   0  0  0  0  0  0  0  0  0  0  0  0
    5.4805   -2.0243   -2.5404 H   0  0  0  0  0  0  0  0  0  0  0  0
  1  2  2  0  0  0  0
  1 44  1  0  0  0  0
  1 45  1  0  0  0  0
  2  3  1  0  0  0  0
  2 46  1  0  0  0  0
  3  4  2  0  0  0  0
  3 42  1  0  0  0  0
  4  5  1  0  0  0  0
  4  6  1  0  0  0  0
  5 47  1  0  0  0  0
  5 48  1  0  0  0  0
  5 49  1  0  0  0  0
  6  7  2  0  0  0  0
  6 41  1  0  0  0  0
  7  8  1  0  0  0  0
  7 50  1  0  0  0  0
  8  9  2  0  0  0  0
  8 39  1  0  0  0  0
  9 10  1  0  0  0  0
 10 11  2  0  0  0  0
 10 33  1  0  0  0  0
 11 12  1  0  0  0  0
 11 51  1  0  0  0  0
 12 13  1  0  0  0  0
 12 27  2  0  0  0  0
 13 14  1  0  0  0  0
 13 52  1  0  0  0  0
 14 15  1  0  0  0  0
 14 25  2  0  0  0  0
 15 16  2  0  0  0  0
 15 53  1  0  0  0  0
 16 17  1  0  0  0  0
 16 22  1  0  0  0  0
 17 18  1  0  0  0  0
 17 54  1  0  0  0  0
 18 19  2  0  0  0  0
 18 20  1  0  0  0  0
 20 21  1  0  0  0  0
 20 22  2  0  0  0  0
 21 55  1  0  0  0  0
 21 56  1  0  0  0  0
 21 57  1  0  0  0  0
 22 23  1  0  0  0  0
 23 24  2  0  0  0  0
 23 58  1  0  0  0  0
 24 59  1  0  0  0  0
 24 60  1  0  0  0  0
 25 26  1  0  0  0  0
 25 27  1  0  0  0  0
 26 61  1  0  0  0  0
 26 62  1  0  0  0  0
 26 63  1  0  0  0  0
 27 28  1  0  0  0  0
 28 29  1  0  0  0  0
 28 64  1  0  0  0  0
 28 65  1  0  0  0  0
 29 30  1  0  0  0  0
 29 66  1  0  0  0  0
 29 67  1  0  0  0  0
 30 31  2  0  0  0  0
 30 32  1  0  0  0  0
 32 68  1  0  0  0  0
 33 34  1  0  0  0  0
 33 39  2  0  0  0  0
 34 35  1  0  0  0  0
 34 69  1  0  0  0  0
 34 70  1  0  0  0  0
 35 36  1  0  0  0  0
 35 71  1  0  0  0  0
 35 72  1  0  0  0  0
 36 37  2  0  0  0  0
 36 38  1  0  0  0  0
 38 73  1  0  0  0  0
 39 40  1  0  0  0  0
 40 74  1  0  0  0  0
 40 75  1  0  0  0  0
 40 76  1  0  0  0  0
 41 42  1  0  0  0  0
 41 77  1  0  0  0  0
 42 43  2  0  0  0  0
M  END
$$$$
