CHEBI:17549
 OpenBabel04242416483D

 18 17  0  0  0  0  0  0  0  0999 V2000
    1.8059    0.0018    0.2432 N   0  0  0  0  0  0  0  0  0  0  0  0
    1.8982    1.2147   -0.5664 C   0  0  0  0  0  0  0  0  0  0  0  0
    2.5506    2.3164    0.2566 C   0  0  0  0  0  0  0  0  0  0  0  0
    1.8771    3.1510    0.8718 O   0  0  0  0  0  0  0  0  0  0  0  0
    4.0643    2.2964    0.3627 C   0  0  0  0  0  0  0  0  0  0  0  0
    4.5833    3.4670    1.1864 C   0  0  0  0  0  0  0  0  0  0  0  0
    4.4115    3.2246    2.6655 C   0  0  0  0  0  0  0  0  0  0  0  0
    5.3254    2.8858    3.4027 O   0  0  0  0  0  0  0  0  0  0  0  0
    3.1507    3.4105    3.1108 O   0  0  0  0  0  0  0  0  0  0  0  0
    1.3105   -0.7185   -0.2827 H   0  0  0  0  0  0  0  0  0  0  0  0
    1.2235    0.1885    1.0632 H   0  0  0  0  0  0  0  0  0  0  0  0
    0.9029    1.5472   -0.8777 H   0  0  0  0  0  0  0  0  0  0  0  0
    2.4925    1.0366   -1.4675 H   0  0  0  0  0  0  0  0  0  0  0  0
    4.4640    2.3687   -0.6547 H   0  0  0  0  0  0  0  0  0  0  0  0
    4.3749    1.3418    0.7995 H   0  0  0  0  0  0  0  0  0  0  0  0
    4.1155    4.4209    0.9183 H   0  0  0  0  0  0  0  0  0  0  0  0
    5.6580    3.5900    1.0046 H   0  0  0  0  0  0  0  0  0  0  0  0
    2.5008    3.6021    2.3906 H   0  0  0  0  0  0  0  0  0  0  0  0
  1  2  1  0  0  0  0
  1 10  1  0  0  0  0
  1 11  1  0  0  0  0
  2  3  1  0  0  0  0
  2 12  1  0  0  0  0
  2 13  1  0  0  0  0
  3  4  2  0  0  0  0
  3  5  1  0  0  0  0
  5  6  1  0  0  0  0
  5 14  1  0  0  0  0
  5 15  1  0  0  0  0
  6  7  1  0  0  0  0
  6 16  1  0  0  0  0
  6 17  1  0  0  0  0
  7  8  2  0  0  0  0
  7  9  1  0  0  0  0
  9 18  1  0  0  0  0
M  END
$$$$
