CHEBI:15924
 OpenBabel04242413293D

 23 22  0  0  0  0  0  0  0  0999 V2000
    2.6766   -1.1194   -3.6636 O   0  0  0  0  0  0  0  0  0  0  0  0
    3.8338   -0.9679   -4.0265 C   0  0  0  0  0  0  0  0  0  0  0  0
    4.1672   -0.2099   -5.0899 O   0  0  0  0  0  0  0  0  0  0  0  0
    5.0061   -1.5688   -3.2957 C   0  0  0  0  0  0  0  0  0  0  0  0
    5.5790   -0.5692   -2.2871 C   0  0  0  0  0  0  0  0  0  0  0  0
    6.5077   -1.2690   -1.3185 C   0  0  0  0  0  0  0  0  0  0  0  0
    6.1088   -1.8064   -0.1533 C   0  0  0  0  0  0  0  0  0  0  0  0
    7.0973   -2.4863    0.7228 C   0  0  0  0  0  0  0  0  0  0  0  0
    8.3136   -2.4056    0.5834 O   0  0  0  0  0  0  0  0  0  0  0  0
    6.5634   -3.3304    1.8804 C   0  0  0  0  0  0  0  0  0  0  0  0
    5.3812   -3.4929    2.1014 O   0  0  0  0  0  0  0  0  0  0  0  0
    7.5825   -3.8499    2.5912 O   0  0  0  0  0  0  0  0  0  0  0  0
    6.3670    0.5073   -3.0338 C   0  0  0  0  0  0  0  0  0  0  0  0
    6.5109    0.5144   -4.2515 O   0  0  0  0  0  0  0  0  0  0  0  0
    6.8853    1.4689   -2.2422 O   0  0  0  0  0  0  0  0  0  0  0  0
    5.1370   -0.0506   -5.1991 H   0  0  0  0  0  0  0  0  0  0  0  0
    5.7466   -1.9246   -4.0220 H   0  0  0  0  0  0  0  0  0  0  0  0
    4.6311   -2.4659   -2.7855 H   0  0  0  0  0  0  0  0  0  0  0  0
    4.7644   -0.0639   -1.7523 H   0  0  0  0  0  0  0  0  0  0  0  0
    7.5573   -1.3487   -1.6120 H   0  0  0  0  0  0  0  0  0  0  0  0
    5.0734   -1.8020    0.1744 H   0  0  0  0  0  0  0  0  0  0  0  0
    8.4393   -3.5673    2.1914 H   0  0  0  0  0  0  0  0  0  0  0  0
    6.7012    1.3567   -1.2889 H   0  0  0  0  0  0  0  0  0  0  0  0
  1  2  2  0  0  0  0
  2  3  1  0  0  0  0
  2  4  1  0  0  0  0
  3 16  1  0  0  0  0
  4  5  1  0  0  0  0
  4 17  1  0  0  0  0
  4 18  1  0  0  0  0
  5  6  1  0  0  0  0
  5 13  1  0  0  0  0
  5 19  1  0  0  0  0
  6  7  2  0  0  0  0
  6 20  1  0  0  0  0
  7  8  1  0  0  0  0
  7 21  1  0  0  0  0
  8  9  2  0  0  0  0
  8 10  1  0  0  0  0
 10 11  2  0  0  0  0
 10 12  1  0  0  0  0
 12 22  1  0  0  0  0
 13 14  2  0  0  0  0
 13 15  1  0  0  0  0
 15 23  1  0  0  0  0
M  END
$$$$
