CHEBI:16469
 OpenBabel04242414293D

 44 47  0  0  1  0  0  0  0  0999 V2000
   -2.6056    0.7690   -1.6606 C   0  0  0  0  0  0  0  0  0  0  0  0
   -2.6611    0.5452   -0.1280 C   0  0  2  0  0  0  0  0  0  0  0  0
   -1.9821    1.7230    0.5805 C   0  0  0  0  0  0  0  0  0  0  0  0
   -0.4618    1.7361    0.3347 C   0  0  0  0  0  0  0  0  0  0  0  0
    0.2353    0.3846    0.6466 C   0  0  2  0  0  0  0  0  0  0  0  0
    1.7285    0.3398    0.3266 C   0  0  0  0  0  0  0  0  0  0  0  0
    2.5284    1.4949    0.4010 C   0  0  0  0  0  0  0  0  0  0  0  0
    3.9005    1.4487    0.1380 C   0  0  0  0  0  0  0  0  0  0  0  0
    4.4918    0.2378   -0.1875 C   0  0  0  0  0  0  0  0  0  0  0  0
    5.8243    0.1454   -0.4593 O   0  0  0  0  0  0  0  0  0  0  0  0
    3.7350   -0.9233   -0.2439 C   0  0  0  0  0  0  0  0  0  0  0  0
    2.3553   -0.8895    0.0231 C   0  0  0  0  0  0  0  0  0  0  0  0
    1.5878   -2.1849   -0.0912 C   0  0  0  0  0  0  0  0  0  0  0  0
    0.1580   -2.1161    0.4374 C   0  0  0  0  0  0  0  0  0  0  0  0
   -0.5076   -0.8146   -0.0173 C   0  0  1  0  0  0  0  0  0  0  0  0
   -1.9878   -0.7542    0.3581 C   0  0  2  0  0  0  0  0  0  0  0  0
   -2.9271   -1.8497   -0.1412 C   0  0  0  0  0  0  0  0  0  0  0  0
   -4.3288   -1.2211   -0.0331 C   0  0  0  0  0  0  0  0  0  0  0  0
   -4.1059    0.2607    0.3294 C   0  0  2  0  0  0  0  0  0  0  0  0
   -5.0748    1.1099   -0.2538 O   0  0  0  0  0  0  0  0  0  0  0  0
   -1.5836    0.8247   -2.0444 H   0  0  0  0  0  0  0  0  0  0  0  0
   -3.0944    1.7126   -1.9297 H   0  0  0  0  0  0  0  0  0  0  0  0
   -3.1105   -0.0264   -2.2177 H   0  0  0  0  0  0  0  0  0  0  0  0
   -2.1569    1.6606    1.6626 H   0  0  0  0  0  0  0  0  0  0  0  0
   -2.4168    2.6753    0.2538 H   0  0  0  0  0  0  0  0  0  0  0  0
   -0.0418    2.5286    0.9655 H   0  0  0  0  0  0  0  0  0  0  0  0
   -0.2549    2.0307   -0.7012 H   0  0  0  0  0  0  0  0  0  0  0  0
    0.1715    0.2528    1.7380 H   0  0  0  0  0  0  0  0  0  0  0  0
    2.0999    2.4569    0.6679 H   0  0  0  0  0  0  0  0  0  0  0  0
    4.4819    2.3629    0.1958 H   0  0  0  0  0  0  0  0  0  0  0  0
    6.2134    1.0324   -0.3946 H   0  0  0  0  0  0  0  0  0  0  0  0
    4.2225   -1.8609   -0.5005 H   0  0  0  0  0  0  0  0  0  0  0  0
    2.1218   -2.9800    0.4433 H   0  0  0  0  0  0  0  0  0  0  0  0
    1.5593   -2.4639   -1.1524 H   0  0  0  0  0  0  0  0  0  0  0  0
    0.1638   -2.1711    1.5338 H   0  0  0  0  0  0  0  0  0  0  0  0
   -0.3937   -2.9923    0.0792 H   0  0  0  0  0  0  0  0  0  0  0  0
   -0.4048   -0.7544   -1.1085 H   0  0  0  0  0  0  0  0  0  0  0  0
   -2.0396   -0.7863    1.4593 H   0  0  0  0  0  0  0  0  0  0  0  0
   -2.8530   -2.7601    0.4622 H   0  0  0  0  0  0  0  0  0  0  0  0
   -2.7100   -2.1218   -1.1802 H   0  0  0  0  0  0  0  0  0  0  0  0
   -4.9191   -1.7140    0.7474 H   0  0  0  0  0  0  0  0  0  0  0  0
   -4.8814   -1.3423   -0.9715 H   0  0  0  0  0  0  0  0  0  0  0  0
   -4.1887    0.3764    1.4173 H   0  0  0  0  0  0  0  0  0  0  0  0
   -5.1634    0.8808   -1.1940 H   0  0  0  0  0  0  0  0  0  0  0  0
  1 21  1  0  0  0  0
  1 22  1  0  0  0  0
  1 23  1  0  0  0  0
  2  1  1  6  0  0  0
  2  3  1  0  0  0  0
  2 16  1  0  0  0  0
  2 19  1  0  0  0  0
  3  4  1  0  0  0  0
  3 24  1  0  0  0  0
  3 25  1  0  0  0  0
  4  5  1  0  0  0  0
  4 26  1  0  0  0  0
  4 27  1  0  0  0  0
  5  6  1  0  0  0  0
  5 15  1  0  0  0  0
  5 28  1  1  0  0  0
  6  7  1  0  0  0  0
  6 12  2  0  0  0  0
  7  8  2  0  0  0  0
  7 29  1  0  0  0  0
  8  9  1  0  0  0  0
  8 30  1  0  0  0  0
  9 10  1  0  0  0  0
  9 11  2  0  0  0  0
 10 31  1  0  0  0  0
 11 12  1  0  0  0  0
 11 32  1  0  0  0  0
 12 13  1  0  0  0  0
 13 14  1  0  0  0  0
 13 33  1  0  0  0  0
 13 34  1  0  0  0  0
 14 15  1  0  0  0  0
 14 35  1  0  0  0  0
 14 36  1  0  0  0  0
 15 16  1  0  0  0  0
 15 37  1  6  0  0  0
 16 17  1  0  0  0  0
 16 38  1  1  0  0  0
 17 18  1  0  0  0  0
 17 39  1  0  0  0  0
 17 40  1  0  0  0  0
 18 19  1  0  0  0  0
 18 41  1  0  0  0  0
 18 42  1  0  0  0  0
 19 20  1  0  0  0  0
 19 43  1  1  0  0  0
 20 44  1  0  0  0  0
M  END
$$$$
