CHEBI:18183
 OpenBabel04242423413D

 16 16  0  0  1  0  0  0  0  0999 V2000
    1.9355    0.1776   -0.0737 O   0  0  0  0  0  0  0  0  0  0  0  0
    0.7229    0.1092    0.0050 C   0  0  0  0  0  0  0  0  0  0  0  0
   -0.2182    1.2414    0.3179 C   0  0  0  0  0  0  0  0  0  0  0  0
   -1.5706    0.6870   -0.1257 C   0  0  0  0  0  0  0  0  0  0  0  0
   -1.4371   -0.8181    0.0612 C   0  0  1  0  0  0  0  0  0  0  0  0
   -2.2804   -1.6318   -0.9237 C   0  0  0  0  0  0  0  0  0  0  0  0
   -1.8392   -2.5233   -1.6357 O   0  0  0  0  0  0  0  0  0  0  0  0
   -3.6009   -1.3330   -0.8906 O   0  0  0  0  0  0  0  0  0  0  0  0
   -0.0259   -1.0357   -0.1271 N   0  0  0  0  0  0  0  0  0  0  0  0
    0.0502    2.1422   -0.2389 H   0  0  0  0  0  0  0  0  0  0  0  0
   -0.1963    1.4366    1.3942 H   0  0  0  0  0  0  0  0  0  0  0  0
   -1.7431    0.9362   -1.1808 H   0  0  0  0  0  0  0  0  0  0  0  0
   -2.3988    1.1111    0.4504 H   0  0  0  0  0  0  0  0  0  0  0  0
   -1.6827   -1.1312    1.0816 H   0  0  0  0  0  0  0  0  0  0  0  0
   -3.8601   -0.6445   -0.2502 H   0  0  0  0  0  0  0  0  0  0  0  0
    0.3919   -1.9269   -0.3764 H   0  0  0  0  0  0  0  0  0  0  0  0
  1  2  2  0  0  0  0
  2  3  1  0  0  0  0
  2  9  1  0  0  0  0
  3  4  1  0  0  0  0
  3 10  1  0  0  0  0
  3 11  1  0  0  0  0
  4  5  1  0  0  0  0
  4 12  1  0  0  0  0
  4 13  1  0  0  0  0
  5  6  1  0  0  0  0
  5  9  1  0  0  0  0
  5 14  1  1  0  0  0
  6  7  2  0  0  0  0
  6  8  1  0  0  0  0
  8 15  1  0  0  0  0
  9 16  1  0  0  0  0
M  END
$$$$
