CHEBI:17376
 OpenBabel04242416263D

 26 25  0  0  0  0  0  0  0  0999 V2000
    5.1088    0.1199    0.0056 N   0  0  0  0  0  0  0  0  0  0  0  0
    4.2522   -0.4316    1.0997 C   0  0  0  0  0  0  0  0  0  0  0  0
    2.8654    0.2170    1.1826 C   0  0  0  0  0  0  0  0  0  0  0  0
    2.8588    1.9056    1.8936 S   0  0  0  0  0  0  0  0  0  0  0  0
    3.8864    1.7439    3.6728 S   0  0  0  0  0  0  0  0  0  0  0  0
    2.6409    1.1347    4.8774 C   0  0  0  0  0  0  0  0  0  0  0  0
    2.3545   -0.3684    4.7588 C   0  0  0  0  0  0  0  0  0  0  0  0
    3.5756   -1.2320    4.8773 N   0  0  0  0  0  0  0  0  0  0  0  0
    1.3741   -0.7592    5.8710 C   0  0  0  0  0  0  0  0  0  0  0  0
    0.2676   -0.2713    6.0284 O   0  0  0  0  0  0  0  0  0  0  0  0
    1.8950   -1.7166    6.6812 O   0  0  0  0  0  0  0  0  0  0  0  0
    4.0935   -1.9411    0.8980 C   0  0  0  0  0  0  0  0  0  0  0  0
    3.3164   -2.6468    1.5231 O   0  0  0  0  0  0  0  0  0  0  0  0
    4.9775   -2.4171   -0.0135 O   0  0  0  0  0  0  0  0  0  0  0  0
    5.3972    1.0611    0.3006 H   0  0  0  0  0  0  0  0  0  0  0  0
    4.5194    0.3015   -0.8147 H   0  0  0  0  0  0  0  0  0  0  0  0
    4.8146   -0.3436    2.0338 H   0  0  0  0  0  0  0  0  0  0  0  0
    2.1607   -0.3935    1.7512 H   0  0  0  0  0  0  0  0  0  0  0  0
    2.4280    0.2910    0.1791 H   0  0  0  0  0  0  0  0  0  0  0  0
    1.7238    1.7256    4.7747 H   0  0  0  0  0  0  0  0  0  0  0  0
    3.0394    1.3550    5.8753 H   0  0  0  0  0  0  0  0  0  0  0  0
    1.8608   -0.6051    3.8145 H   0  0  0  0  0  0  0  0  0  0  0  0
    4.3764   -0.7012    4.5199 H   0  0  0  0  0  0  0  0  0  0  0  0
    3.4723   -2.0144    4.2154 H   0  0  0  0  0  0  0  0  0  0  0  0
    2.8042   -1.9007    6.3319 H   0  0  0  0  0  0  0  0  0  0  0  0
    5.5070   -1.6374   -0.3203 H   0  0  0  0  0  0  0  0  0  0  0  0
  1  2  1  0  0  0  0
  1 15  1  0  0  0  0
  1 16  1  0  0  0  0
  2  3  1  0  0  0  0
  2 12  1  0  0  0  0
  2 17  1  0  0  0  0
  3  4  1  0  0  0  0
  3 18  1  0  0  0  0
  3 19  1  0  0  0  0
  4  5  1  0  0  0  0
  5  6  1  0  0  0  0
  6  7  1  0  0  0  0
  6 20  1  0  0  0  0
  6 21  1  0  0  0  0
  7  8  1  0  0  0  0
  7  9  1  0  0  0  0
  7 22  1  0  0  0  0
  8 23  1  0  0  0  0
  8 24  1  0  0  0  0
  9 10  2  0  0  0  0
  9 11  1  0  0  0  0
 11 25  1  0  0  0  0
 12 13  2  0  0  0  0
 12 14  1  0  0  0  0
 14 26  1  0  0  0  0
M  END
$$$$
