CHEBI:21557
 OpenBabel04252409393D

 25 24  0  0  1  0  0  0  0  0999 V2000
    6.2399   -4.1367    5.8368 C   0  0  0  0  0  0  0  0  0  0  0  0
    5.6019   -3.1238    4.4783 S   0  0  0  0  0  0  0  0  0  0  0  0
    5.4253   -1.5433    5.3755 C   0  0  0  0  0  0  0  0  0  0  0  0
    4.8866   -0.4167    4.4842 C   0  0  0  0  0  0  0  0  0  0  0  0
    5.8264    0.0772    3.3696 C   0  0  2  0  0  0  0  0  0  0  0  0
    5.9963   -0.9356    2.3163 N   0  0  0  0  0  0  0  0  0  0  0  0
    6.0314   -0.6263    0.9787 C   0  0  0  0  0  0  0  0  0  0  0  0
    6.0187   -1.8231    0.0675 C   0  0  0  0  0  0  0  0  0  0  0  0
    6.0916    0.5241    0.5649 O   0  0  0  0  0  0  0  0  0  0  0  0
    7.1653    0.5512    3.9586 C   0  0  0  0  0  0  0  0  0  0  0  0
    7.2651    1.2657    4.9461 O   0  0  0  0  0  0  0  0  0  0  0  0
    8.2486    0.0945    3.2870 O   0  0  0  0  0  0  0  0  0  0  0  0
    6.4286   -5.1491    5.4701 H   0  0  0  0  0  0  0  0  0  0  0  0
    5.5088   -4.1902    6.6474 H   0  0  0  0  0  0  0  0  0  0  0  0
    7.1791   -3.7217    6.2112 H   0  0  0  0  0  0  0  0  0  0  0  0
    6.3912   -1.2693    5.8103 H   0  0  0  0  0  0  0  0  0  0  0  0
    4.7219   -1.7042    6.1995 H   0  0  0  0  0  0  0  0  0  0  0  0
    4.6647    0.4349    5.1414 H   0  0  0  0  0  0  0  0  0  0  0  0
    3.9259   -0.7192    4.0468 H   0  0  0  0  0  0  0  0  0  0  0  0
    5.3758    0.9615    2.9022 H   0  0  0  0  0  0  0  0  0  0  0  0
    5.8780   -1.9089    2.5970 H   0  0  0  0  0  0  0  0  0  0  0  0
    6.4027   -2.7122    0.5761 H   0  0  0  0  0  0  0  0  0  0  0  0
    6.6589   -1.6241   -0.7964 H   0  0  0  0  0  0  0  0  0  0  0  0
    4.9956   -2.0108   -0.2672 H   0  0  0  0  0  0  0  0  0  0  0  0
    7.9553   -0.3963    2.4934 H   0  0  0  0  0  0  0  0  0  0  0  0
  1  2  1  0  0  0  0
  1 13  1  0  0  0  0
  1 14  1  0  0  0  0
  1 15  1  0  0  0  0
  2  3  1  0  0  0  0
  3  4  1  0  0  0  0
  3 16  1  0  0  0  0
  3 17  1  0  0  0  0
  4 18  1  0  0  0  0
  4 19  1  0  0  0  0
  5 10  1  0  0  0  0
  5  6  1  0  0  0  0
  5  4  1  0  0  0  0
  5 20  1  6  0  0  0
  6  7  1  0  0  0  0
  6 21  1  0  0  0  0
  7  8  1  0  0  0  0
  7  9  2  0  0  0  0
  8 22  1  0  0  0  0
  8 23  1  0  0  0  0
  8 24  1  0  0  0  0
 10 11  2  0  0  0  0
 10 12  1  0  0  0  0
 12 25  1  0  0  0  0
M  END
$$$$
