CHEBI:15678
 OpenBabel04242413033D

 17 17  0  0  1  0  0  0  0  0999 V2000
    5.7050    0.0171   -4.6701 N   0  0  0  0  0  0  0  0  0  0  0  0
    4.9125    0.0438   -3.5708 C   0  0  0  0  0  0  0  0  0  0  0  0
    3.7792    0.4951   -3.5998 O   0  0  0  0  0  0  0  0  0  0  0  0
    5.5191   -0.5014   -2.4819 N   0  0  0  0  0  0  0  0  0  0  0  0
    4.8728   -0.3833   -1.2116 C   0  0  1  0  0  0  0  0  0  0  0  0
    5.3059   -1.4175   -0.3261 N   0  0  0  0  0  0  0  0  0  0  0  0
    5.7317   -0.9218    0.8801 C   0  0  0  0  0  0  0  0  0  0  0  0
    6.0677   -1.6005    1.8333 O   0  0  0  0  0  0  0  0  0  0  0  0
    5.7284    0.4293    0.8251 N   0  0  0  0  0  0  0  0  0  0  0  0
    5.3110    0.8592   -0.3988 C   0  0  0  0  0  0  0  0  0  0  0  0
    5.3258    2.0234   -0.7673 O   0  0  0  0  0  0  0  0  0  0  0  0
    5.2297    0.3196   -5.5124 H   0  0  0  0  0  0  0  0  0  0  0  0
    6.2989   -0.7904   -4.7910 H   0  0  0  0  0  0  0  0  0  0  0  0
    6.5237   -0.4167   -2.4791 H   0  0  0  0  0  0  0  0  0  0  0  0
    3.7810   -0.4108   -1.2865 H   0  0  0  0  0  0  0  0  0  0  0  0
    5.1304   -2.4026   -0.4595 H   0  0  0  0  0  0  0  0  0  0  0  0
    6.0658    1.0267    1.5600 H   0  0  0  0  0  0  0  0  0  0  0  0
  1  2  1  0  0  0  0
  1 12  1  0  0  0  0
  1 13  1  0  0  0  0
  2  3  2  0  0  0  0
  2  4  1  0  0  0  0
  4 14  1  0  0  0  0
  5  6  1  0  0  0  0
  5 10  1  0  0  0  0
  5  4  1  0  0  0  0
  5 15  1  6  0  0  0
  6  7  1  0  0  0  0
  6 16  1  0  0  0  0
  7  8  2  0  0  0  0
  7  9  1  0  0  0  0
  9 10  1  0  0  0  0
  9 17  1  0  0  0  0
 10 11  2  0  0  0  0
M  END
$$$$
