CHEBI:18422
 OpenBabel04252409363D

  3  2  0  0  0  0  0  0  0  0999 V2000
    0.9059    0.0632    0.0911 O   0  0  0  0  0  0  0  0  0  0  0  0
    2.4749    0.0157    0.0818 S   0  0  0  0  0  0  0  0  0  0  0  0
    3.0435   -1.4202   -0.1992 O   0  0  0  0  0  0  0  0  0  0  0  0
  1  2  2  0  0  0  0
  2  3  2  0  0  0  0
M  END
$$$$
