CHEBI:15625
 OpenBabel04242412553D

 47 49  0  0  1  0  0  0  0  0999 V2000
    1.1459    2.0701    2.0150 C   0  0  0  0  0  0  0  0  0  0  0  0
    2.8767    1.8438    2.5185 S   0  3  0  0  0  0  0  0  0  0  0  0
    2.7444    0.0752    2.9593 C   0  0  0  0  0  0  0  0  0  0  0  0
    1.9686   -0.1054    4.2635 C   0  0  0  0  0  0  0  0  0  0  0  0
    1.9509   -1.5681    4.7024 C   0  0  0  0  0  0  0  0  0  0  0  0
    1.0970   -1.7310    5.8730 N   0  0  0  0  0  0  0  0  0  0  0  0
    3.5057    1.6255    0.8210 C   0  0  0  0  0  0  0  0  0  0  0  0
    5.0255    1.4668    0.7629 C   0  0  1  0  0  0  0  0  0  0  0  0
    5.3876    1.1531   -0.6064 O   0  0  0  0  0  0  0  0  0  0  0  0
    6.0965    2.2847   -1.1583 C   0  0  1  0  0  0  0  0  0  0  0  0
    5.6352    2.5299   -2.5100 N   0  0  0  0  0  0  0  0  0  0  0  0
    6.4157    2.4283   -3.6349 C   0  0  0  0  0  0  0  0  0  0  0  0
    5.7569    2.7464   -4.7287 N   0  0  0  0  0  0  0  0  0  0  0  0
    4.4864    3.0606   -4.2914 C   0  0  0  0  0  0  0  0  0  0  0  0
    3.3329    3.4903   -4.9702 C   0  0  0  0  0  0  0  0  0  0  0  0
    3.2826    3.6776   -6.3466 N   0  0  0  0  0  0  0  0  0  0  0  0
    2.2229    3.7670   -4.2493 N   0  0  0  0  0  0  0  0  0  0  0  0
    2.2717    3.5936   -2.9124 C   0  0  0  0  0  0  0  0  0  0  0  0
    3.3100    3.1855   -2.1562 N   0  0  0  0  0  0  0  0  0  0  0  0
    4.3917    2.9354   -2.9145 C   0  0  0  0  0  0  0  0  0  0  0  0
    5.9277    3.4609   -0.1956 C   0  0  2  0  0  0  0  0  0  0  0  0
    7.0509    4.3442   -0.1978 O   0  0  0  0  0  0  0  0  0  0  0  0
    5.7993    2.7356    1.1331 C   0  0  2  0  0  0  0  0  0  0  0  0
    7.1341    2.4062    1.5711 O   0  0  0  0  0  0  0  0  0  0  0  0
    0.5196    2.1416    2.9067 H   0  0  0  0  0  0  0  0  0  0  0  0
    0.8064    1.2419    1.3882 H   0  0  0  0  0  0  0  0  0  0  0  0
    1.0640    3.0059    1.4561 H   0  0  0  0  0  0  0  0  0  0  0  0
    3.7663   -0.3003    3.0763 H   0  0  0  0  0  0  0  0  0  0  0  0
    2.2670   -0.4786    2.1449 H   0  0  0  0  0  0  0  0  0  0  0  0
    0.9370    0.2432    4.1334 H   0  0  0  0  0  0  0  0  0  0  0  0
    2.4123    0.5131    5.0545 H   0  0  0  0  0  0  0  0  0  0  0  0
    2.9660   -1.9032    4.9411 H   0  0  0  0  0  0  0  0  0  0  0  0
    1.5693   -2.2018    3.8949 H   0  0  0  0  0  0  0  0  0  0  0  0
    1.4388   -1.1518    6.6390 H   0  0  0  0  0  0  0  0  0  0  0  0
    1.1403   -2.6956    6.1992 H   0  0  0  0  0  0  0  0  0  0  0  0
    3.2033    2.5152    0.2642 H   0  0  0  0  0  0  0  0  0  0  0  0
    3.0110    0.7734    0.3422 H   0  0  0  0  0  0  0  0  0  0  0  0
    5.3444    0.6176    1.3771 H   0  0  0  0  0  0  0  0  0  0  0  0
    7.1540    1.9989   -1.2274 H   0  0  0  0  0  0  0  0  0  0  0  0
    7.4550    2.1244   -3.5983 H   0  0  0  0  0  0  0  0  0  0  0  0
    4.2001    3.8026   -6.7609 H   0  0  0  0  0  0  0  0  0  0  0  0
    2.5582    4.3329   -6.6084 H   0  0  0  0  0  0  0  0  0  0  0  0
    1.3534    3.8172   -2.3761 H   0  0  0  0  0  0  0  0  0  0  0  0
    5.0281    4.0485   -0.3979 H   0  0  0  0  0  0  0  0  0  0  0  0
    7.6885    3.9542    0.4377 H   0  0  0  0  0  0  0  0  0  0  0  0
    5.3474    3.3525    1.9138 H   0  0  0  0  0  0  0  0  0  0  0  0
    7.0442    1.9646    2.4366 H   0  0  0  0  0  0  0  0  0  0  0  0
  1  2  1  0  0  0  0
  1 25  1  0  0  0  0
  1 26  1  0  0  0  0
  1 27  1  0  0  0  0
  2  3  1  0  0  0  0
  2  7  1  0  0  0  0
  3  4  1  0  0  0  0
  3 28  1  0  0  0  0
  3 29  1  0  0  0  0
  4  5  1  0  0  0  0
  4 30  1  0  0  0  0
  4 31  1  0  0  0  0
  5  6  1  0  0  0  0
  5 32  1  0  0  0  0
  5 33  1  0  0  0  0
  6 34  1  0  0  0  0
  6 35  1  0  0  0  0
  7  8  1  0  0  0  0
  7 36  1  0  0  0  0
  7 37  1  0  0  0  0
  8  9  1  0  0  0  0
  8 23  1  0  0  0  0
  8 38  1  1  0  0  0
  9 10  1  0  0  0  0
 10 11  1  0  0  0  0
 10 21  1  0  0  0  0
 10 39  1  6  0  0  0
 11 12  1  0  0  0  0
 11 20  1  0  0  0  0
 12 13  2  0  0  0  0
 12 40  1  0  0  0  0
 13 14  1  0  0  0  0
 14 15  1  0  0  0  0
 14 20  2  0  0  0  0
 15 16  1  0  0  0  0
 15 17  2  0  0  0  0
 16 41  1  0  0  0  0
 16 42  1  0  0  0  0
 17 18  1  0  0  0  0
 18 19  2  0  0  0  0
 18 43  1  0  0  0  0
 19 20  1  0  0  0  0
 21 22  1  0  0  0  0
 21 23  1  0  0  0  0
 21 44  1  6  0  0  0
 22 45  1  0  0  0  0
 23 24  1  0  0  0  0
 23 46  1  1  0  0  0
 24 47  1  0  0  0  0
M  CHG  1   2   1
M  END
$$$$
