CHEBI:16284
 OpenBabel04242414073D

 46 48  0  0  1  0  0  0  0  0999 V2000
   -1.5970   -0.1093   -2.0092 N   0  0  0  0  0  0  0  0  0  0  0  0
   -1.0092   -0.9037   -1.0323 C   0  0  0  0  0  0  0  0  0  0  0  0
   -1.6210   -2.0627   -0.6992 N   0  0  0  0  0  0  0  0  0  0  0  0
   -1.0575   -2.8308    0.2573 C   0  0  0  0  0  0  0  0  0  0  0  0
    0.0842   -2.6149    0.9409 N   0  0  0  0  0  0  0  0  0  0  0  0
    0.6662   -1.4664    0.5573 C   0  0  0  0  0  0  0  0  0  0  0  0
    0.1988   -0.5734   -0.3942 C   0  0  0  0  0  0  0  0  0  0  0  0
    1.0600    0.4946   -0.5310 N   0  0  0  0  0  0  0  0  0  0  0  0
    2.0234    0.2596    0.3360 C   0  0  0  0  0  0  0  0  0  0  0  0
    1.8441   -0.9269    1.0028 N   0  0  0  0  0  0  0  0  0  0  0  0
    2.6972   -1.4591    2.0473 C   0  0  1  0  0  0  0  0  0  0  0  0
    2.8952   -2.9681    2.0353 C   0  0  0  0  0  0  0  0  0  0  0  0
    4.2042   -3.1174    2.7692 C   0  0  2  0  0  0  0  0  0  0  0  0
    3.9252   -3.0567    4.1695 O   0  0  0  0  0  0  0  0  0  0  0  0
    4.9931   -1.8875    2.3261 C   0  0  1  0  0  0  0  0  0  0  0  0
    5.9399   -2.1789    1.1575 C   0  0  0  0  0  0  0  0  0  0  0  0
    6.7157   -1.0150    0.9111 O   0  0  0  0  0  0  0  0  0  0  0  0
    7.9380   -1.0782   -0.1199 P   0  0  0  0  0  0  0  0  0  0  0  0
    8.6358    0.2334   -0.3264 O   0  0  0  0  0  0  0  0  0  0  0  0
    8.8964   -2.2010    0.4939 O   0  0  0  0  0  0  0  0  0  0  0  0
    7.3609   -1.7239   -1.4468 O   0  0  0  0  0  0  0  0  0  0  0  0
    8.2223   -2.1639   -2.7057 P   0  0  0  0  0  0  0  0  0  0  0  0
    8.8653   -3.5065   -2.6125 O   0  0  0  0  0  0  0  0  0  0  0  0
    7.1193   -2.1787   -3.8733 O   0  0  0  0  0  0  0  0  0  0  0  0
    9.1693   -0.9625   -3.1311 O   0  0  0  0  0  0  0  0  0  0  0  0
   10.5266   -0.6450   -2.3727 P   0  0  0  0  0  0  0  0  0  0  0  0
   10.8172   -1.4662   -1.1577 O   0  0  0  0  0  0  0  0  0  0  0  0
   11.6493   -0.6649   -3.5026 O   0  0  0  0  0  0  0  0  0  0  0  0
   10.4127    0.9185   -2.0709 O   0  0  0  0  0  0  0  0  0  0  0  0
    4.0219   -0.8986    1.9068 O   0  0  0  0  0  0  0  0  0  0  0  0
   -2.2084   -0.6413   -2.6137 H   0  0  0  0  0  0  0  0  0  0  0  0
   -0.9466    0.5364   -2.4433 H   0  0  0  0  0  0  0  0  0  0  0  0
   -1.5926   -3.7437    0.5035 H   0  0  0  0  0  0  0  0  0  0  0  0
    2.8714    0.9080    0.5228 H   0  0  0  0  0  0  0  0  0  0  0  0
    2.2875   -1.1094    3.0027 H   0  0  0  0  0  0  0  0  0  0  0  0
    2.9962   -3.3412    1.0093 H   0  0  0  0  0  0  0  0  0  0  0  0
    2.0665   -3.4905    2.5235 H   0  0  0  0  0  0  0  0  0  0  0  0
    4.7024   -4.0700    2.5681 H   0  0  0  0  0  0  0  0  0  0  0  0
    4.7641   -3.1756    4.6502 H   0  0  0  0  0  0  0  0  0  0  0  0
    5.5545   -1.4436    3.1559 H   0  0  0  0  0  0  0  0  0  0  0  0
    5.3798   -2.4217    0.2488 H   0  0  0  0  0  0  0  0  0  0  0  0
    6.6048   -3.0115    1.4084 H   0  0  0  0  0  0  0  0  0  0  0  0
    9.8229   -2.1095    0.1548 H   0  0  0  0  0  0  0  0  0  0  0  0
    7.2036   -2.9890   -4.4105 H   0  0  0  0  0  0  0  0  0  0  0  0
   12.5137   -0.3770   -3.1580 H   0  0  0  0  0  0  0  0  0  0  0  0
    9.7898    1.0655   -1.3153 H   0  0  0  0  0  0  0  0  0  0  0  0
  1  2  1  0  0  0  0
  1 31  1  0  0  0  0
  1 32  1  0  0  0  0
  2  3  1  0  0  0  0
  2  7  2  0  0  0  0
  3  4  2  0  0  0  0
  4  5  1  0  0  0  0
  4 33  1  0  0  0  0
  5  6  2  0  0  0  0
  6  7  1  0  0  0  0
  6 10  1  0  0  0  0
  7  8  1  0  0  0  0
  8  9  2  0  0  0  0
  9 10  1  0  0  0  0
  9 34  1  0  0  0  0
 10 11  1  0  0  0  0
 11 12  1  0  0  0  0
 11 30  1  0  0  0  0
 11 35  1  1  0  0  0
 12 13  1  0  0  0  0
 12 36  1  0  0  0  0
 12 37  1  0  0  0  0
 13 14  1  0  0  0  0
 13 15  1  0  0  0  0
 13 38  1  6  0  0  0
 14 39  1  0  0  0  0
 15 16  1  0  0  0  0
 15 30  1  0  0  0  0
 15 40  1  1  0  0  0
 16 17  1  0  0  0  0
 16 41  1  0  0  0  0
 16 42  1  0  0  0  0
 17 18  1  0  0  0  0
 18 19  2  0  0  0  0
 18 20  1  0  0  0  0
 18 21  1  0  0  0  0
 20 43  1  0  0  0  0
 21 22  1  0  0  0  0
 22 23  2  0  0  0  0
 22 24  1  0  0  0  0
 22 25  1  0  0  0  0
 24 44  1  0  0  0  0
 25 26  1  0  0  0  0
 26 27  2  0  0  0  0
 26 28  1  0  0  0  0
 26 29  1  0  0  0  0
 28 45  1  0  0  0  0
 29 46  1  0  0  0  0
M  END
$$$$
