CHEBI:18329
 OpenBabel04252409243D

 53 56  0  0  1  0  0  0  0  0999 V2000
    1.2005    0.2290   -0.4296 C   0  0  0  0  0  0  0  0  0  0  0  0
    2.7109   -0.1326   -0.4549 C   0  0  2  0  0  0  0  0  0  0  0  0
    3.2382    0.2494   -1.8797 C   0  0  0  0  0  0  0  0  0  0  0  0
    4.4855    1.1280   -1.8755 C   0  0  0  0  0  0  0  0  0  0  0  0
    4.3105    2.3961   -1.0383 C   0  0  2  0  0  0  0  0  0  0  0  0
    5.6025    2.9488   -0.7832 O   0  0  0  0  0  0  0  0  0  0  0  0
    3.6097    2.1558    0.3049 C   0  0  0  0  0  0  0  0  0  0  0  0
    3.5215    0.6588    0.6224 C   0  0  2  0  0  0  0  0  0  0  0  0
    3.0198    0.3863    2.0387 C   0  0  0  0  0  0  0  0  0  0  0  0
    3.1606   -1.0987    2.3626 C   0  0  0  0  0  0  0  0  0  0  0  0
    2.4900   -2.0274    1.3261 C   0  0  2  0  0  0  0  0  0  0  0  0
    2.9107   -1.6630   -0.1315 C   0  0  2  0  0  0  0  0  0  0  0  0
    2.1916   -2.6132   -1.1060 C   0  0  0  0  0  0  0  0  0  0  0  0
    2.6022   -4.0591   -0.8503 C   0  0  0  0  0  0  0  0  0  0  0  0
    2.3489   -4.5373    0.5878 C   0  0  2  0  0  0  0  0  0  0  0  0
    3.0943   -5.8835    0.7633 C   0  0  0  0  0  0  0  0  0  0  0  0
    0.8474   -4.6895    0.9141 C   0  0  1  0  0  0  0  0  0  0  0  0
    0.2736   -5.8757    0.3940 O   0  0  0  0  0  0  0  0  0  0  0  0
    0.7757   -4.6868    2.4396 C   0  0  0  0  0  0  0  0  0  0  0  0
    2.0473   -3.9862    2.9250 C   0  0  0  0  0  0  0  0  0  0  0  0
    2.8034   -3.5169    1.6625 C   0  0  1  0  0  0  0  0  0  0  0  0
    1.0394    1.2995   -0.5934 H   0  0  0  0  0  0  0  0  0  0  0  0
    0.7123   -0.0268    0.5137 H   0  0  0  0  0  0  0  0  0  0  0  0
    0.6557   -0.2916   -1.2250 H   0  0  0  0  0  0  0  0  0  0  0  0
    2.4609    0.7870   -2.4394 H   0  0  0  0  0  0  0  0  0  0  0  0
    3.4661   -0.6374   -2.4766 H   0  0  0  0  0  0  0  0  0  0  0  0
    4.7432    1.4089   -2.9045 H   0  0  0  0  0  0  0  0  0  0  0  0
    5.3465    0.5479   -1.5182 H   0  0  0  0  0  0  0  0  0  0  0  0
    3.7478    3.1477   -1.6036 H   0  0  0  0  0  0  0  0  0  0  0  0
    6.0473    3.0681   -1.6397 H   0  0  0  0  0  0  0  0  0  0  0  0
    2.6038    2.5887    0.2724 H   0  0  0  0  0  0  0  0  0  0  0  0
    4.1408    2.6789    1.1098 H   0  0  0  0  0  0  0  0  0  0  0  0
    4.5577    0.2860    0.6070 H   0  0  0  0  0  0  0  0  0  0  0  0
    1.9825    0.7119    2.1684 H   0  0  0  0  0  0  0  0  0  0  0  0
    3.6137    0.9591    2.7617 H   0  0  0  0  0  0  0  0  0  0  0  0
    2.7463   -1.2689    3.3616 H   0  0  0  0  0  0  0  0  0  0  0  0
    4.2295   -1.3419    2.4273 H   0  0  0  0  0  0  0  0  0  0  0  0
    1.4056   -1.8846    1.4159 H   0  0  0  0  0  0  0  0  0  0  0  0
    3.9894   -1.8630   -0.2220 H   0  0  0  0  0  0  0  0  0  0  0  0
    2.4362   -2.3811   -2.1461 H   0  0  0  0  0  0  0  0  0  0  0  0
    1.1050   -2.5131   -1.0188 H   0  0  0  0  0  0  0  0  0  0  0  0
    3.6727   -4.1496   -1.0806 H   0  0  0  0  0  0  0  0  0  0  0  0
    2.0827   -4.7103   -1.5638 H   0  0  0  0  0  0  0  0  0  0  0  0
    2.7925   -6.6057   -0.0037 H   0  0  0  0  0  0  0  0  0  0  0  0
    2.9067   -6.3450    1.7378 H   0  0  0  0  0  0  0  0  0  0  0  0
    4.1776   -5.7421    0.6730 H   0  0  0  0  0  0  0  0  0  0  0  0
    0.2607   -3.8460    0.5352 H   0  0  0  0  0  0  0  0  0  0  0  0
    0.3549   -5.8419   -0.5743 H   0  0  0  0  0  0  0  0  0  0  0  0
    0.7081   -5.7004    2.8511 H   0  0  0  0  0  0  0  0  0  0  0  0
   -0.1192   -4.1511    2.7762 H   0  0  0  0  0  0  0  0  0  0  0  0
    2.6647   -4.7033    3.4797 H   0  0  0  0  0  0  0  0  0  0  0  0
    1.8041   -3.1819    3.6236 H   0  0  0  0  0  0  0  0  0  0  0  0
    3.8853   -3.6050    1.8279 H   0  0  0  0  0  0  0  0  0  0  0  0
  1 22  1  0  0  0  0
  1 23  1  0  0  0  0
  1 24  1  0  0  0  0
  2  3  1  0  0  0  0
  2  8  1  0  0  0  0
  2 12  1  0  0  0  0
  2  1  1  6  0  0  0
  3  4  1  0  0  0  0
  3 25  1  0  0  0  0
  3 26  1  0  0  0  0
  4  5  1  0  0  0  0
  4 27  1  0  0  0  0
  4 28  1  0  0  0  0
  5  7  1  0  0  0  0
  5  6  1  0  0  0  0
  5 29  1  6  0  0  0
  6 30  1  0  0  0  0
  7  8  1  0  0  0  0
  7 31  1  0  0  0  0
  7 32  1  0  0  0  0
  8  9  1  0  0  0  0
  8 33  1  1  0  0  0
  9 10  1  0  0  0  0
  9 34  1  0  0  0  0
  9 35  1  0  0  0  0
 10 11  1  0  0  0  0
 10 36  1  0  0  0  0
 10 37  1  0  0  0  0
 11 12  1  0  0  0  0
 11 21  1  0  0  0  0
 11 38  1  6  0  0  0
 12 13  1  0  0  0  0
 12 39  1  1  0  0  0
 13 14  1  0  0  0  0
 13 40  1  0  0  0  0
 13 41  1  0  0  0  0
 14 15  1  0  0  0  0
 14 42  1  0  0  0  0
 14 43  1  0  0  0  0
 15 17  1  0  0  0  0
 15 21  1  0  0  0  0
 15 16  1  1  0  0  0
 16 44  1  0  0  0  0
 16 45  1  0  0  0  0
 16 46  1  0  0  0  0
 17 19  1  0  0  0  0
 17 18  1  0  0  0  0
 17 47  1  6  0  0  0
 18 48  1  0  0  0  0
 19 20  1  0  0  0  0
 19 49  1  0  0  0  0
 19 50  1  0  0  0  0
 20 21  1  0  0  0  0
 20 51  1  0  0  0  0
 20 52  1  0  0  0  0
 21 53  1  6  0  0  0
M  END
$$$$
