CHEBI:3213
 OpenBabel04242410463D

 45 46  0  0  0  0  0  0  0  0999 V2000
    2.8888    6.2988   -1.8495 C   0  0  0  0  0  0  0  0  0  0  0  0
    3.7844    5.3756   -1.0391 C   0  0  0  0  0  0  0  0  0  0  0  0
    4.0617    4.0695   -1.7829 C   0  0  0  0  0  0  0  0  0  0  0  0
    5.0328    3.1839   -1.0022 C   0  0  0  0  0  0  0  0  0  0  0  0
    5.2843    1.9402   -1.7251 N   0  0  0  0  0  0  0  0  0  0  0  0
    6.4429    1.7751   -2.4961 C   0  0  0  0  0  0  0  0  0  0  0  0
    7.0637    2.8468   -3.1496 C   0  0  0  0  0  0  0  0  0  0  0  0
    8.1903    2.6505   -3.9584 C   0  0  0  0  0  0  0  0  0  0  0  0
    8.7928    3.8338   -4.6138 C   0  0  0  0  0  0  0  0  0  0  0  0
    8.8743    4.9220   -4.0737 O   0  0  0  0  0  0  0  0  0  0  0  0
    9.1957    3.5920   -5.8783 O   0  0  0  0  0  0  0  0  0  0  0  0
    8.7469    1.3784   -4.1023 C   0  0  0  0  0  0  0  0  0  0  0  0
    8.1256    0.2910   -3.4826 C   0  0  0  0  0  0  0  0  0  0  0  0
    8.8079   -1.3288   -3.6165 S   0  0  0  0  0  0  0  0  0  0  0  0
   10.2406   -1.1088   -4.4826 N   0  0  0  0  0  0  0  0  0  0  0  0
    9.2381   -1.7729   -2.3135 O   0  0  0  0  0  0  0  0  0  0  0  0
    7.9814   -2.1114   -4.5042 O   0  0  0  0  0  0  0  0  0  0  0  0
    6.9553    0.4773   -2.7336 C   0  0  0  0  0  0  0  0  0  0  0  0
    6.3509   -0.6046   -2.1270 O   0  0  0  0  0  0  0  0  0  0  0  0
    5.2054   -1.1080   -2.7130 C   0  0  0  0  0  0  0  0  0  0  0  0
    4.8849   -0.9941   -4.0685 C   0  0  0  0  0  0  0  0  0  0  0  0
    3.7122   -1.5716   -4.5606 C   0  0  0  0  0  0  0  0  0  0  0  0
    2.8573   -2.2609   -3.7022 C   0  0  0  0  0  0  0  0  0  0  0  0
    3.1770   -2.3817   -2.3508 C   0  0  0  0  0  0  0  0  0  0  0  0
    4.3531   -1.8130   -1.8590 C   0  0  0  0  0  0  0  0  0  0  0  0
    2.6918    7.2205   -1.2932 H   0  0  0  0  0  0  0  0  0  0  0  0
    1.9288    5.8218   -2.0704 H   0  0  0  0  0  0  0  0  0  0  0  0
    3.3641    6.5708   -2.7976 H   0  0  0  0  0  0  0  0  0  0  0  0
    3.3057    5.1602   -0.0767 H   0  0  0  0  0  0  0  0  0  0  0  0
    4.7276    5.8915   -0.8244 H   0  0  0  0  0  0  0  0  0  0  0  0
    4.4625    4.2926   -2.7779 H   0  0  0  0  0  0  0  0  0  0  0  0
    3.1202    3.5291   -1.9440 H   0  0  0  0  0  0  0  0  0  0  0  0
    4.5754    2.9271   -0.0385 H   0  0  0  0  0  0  0  0  0  0  0  0
    5.9632    3.7136   -0.7647 H   0  0  0  0  0  0  0  0  0  0  0  0
    5.0991    1.1120   -1.1582 H   0  0  0  0  0  0  0  0  0  0  0  0
    6.6781    3.8579   -3.0443 H   0  0  0  0  0  0  0  0  0  0  0  0
    8.9041    2.7404   -6.2536 H   0  0  0  0  0  0  0  0  0  0  0  0
    9.6645    1.2496   -4.6692 H   0  0  0  0  0  0  0  0  0  0  0  0
   11.0246   -1.3840   -3.8859 H   0  0  0  0  0  0  0  0  0  0  0  0
   10.1858   -1.6660   -5.3385 H   0  0  0  0  0  0  0  0  0  0  0  0
    5.5379   -0.4809   -4.7657 H   0  0  0  0  0  0  0  0  0  0  0  0
    3.4717   -1.4902   -5.6174 H   0  0  0  0  0  0  0  0  0  0  0  0
    1.9467   -2.7109   -4.0891 H   0  0  0  0  0  0  0  0  0  0  0  0
    2.5144   -2.9246   -1.6822 H   0  0  0  0  0  0  0  0  0  0  0  0
    4.6044   -1.9205   -0.8072 H   0  0  0  0  0  0  0  0  0  0  0  0
  1  2  1  0  0  0  0
  1 26  1  0  0  0  0
  1 27  1  0  0  0  0
  1 28  1  0  0  0  0
  2  3  1  0  0  0  0
  2 29  1  0  0  0  0
  2 30  1  0  0  0  0
  3  4  1  0  0  0  0
  3 31  1  0  0  0  0
  3 32  1  0  0  0  0
  4  5  1  0  0  0  0
  4 33  1  0  0  0  0
  4 34  1  0  0  0  0
  5  6  1  0  0  0  0
  5 35  1  0  0  0  0
  6  7  1  0  0  0  0
  6 18  2  0  0  0  0
  7  8  2  0  0  0  0
  7 36  1  0  0  0  0
  8  9  1  0  0  0  0
  8 12  1  0  0  0  0
  9 10  2  0  0  0  0
  9 11  1  0  0  0  0
 11 37  1  0  0  0  0
 12 13  2  0  0  0  0
 12 38  1  0  0  0  0
 13 14  1  0  0  0  0
 13 18  1  0  0  0  0
 14 15  1  0  0  0  0
 14 16  2  0  0  0  0
 14 17  2  0  0  0  0
 15 39  1  0  0  0  0
 15 40  1  0  0  0  0
 18 19  1  0  0  0  0
 19 20  1  0  0  0  0
 20 21  1  0  0  0  0
 20 25  2  0  0  0  0
 21 22  2  0  0  0  0
 21 41  1  0  0  0  0
 22 23  1  0  0  0  0
 22 42  1  0  0  0  0
 23 24  2  0  0  0  0
 23 43  1  0  0  0  0
 24 25  1  0  0  0  0
 24 44  1  0  0  0  0
 25 45  1  0  0  0  0
M  END
$$$$
