CHEBI:17768
 OpenBabel04242417153D

 23 22  0  0  0  0  0  0  0  0999 V2000
    5.2176   -3.2471    1.4189 C   0  0  0  0  0  0  0  0  0  0  0  0
    4.5991   -1.9119    1.7291 C   0  0  0  0  0  0  0  0  0  0  0  0
    3.6822   -1.7776    2.5309 O   0  0  0  0  0  0  0  0  0  0  0  0
    5.1693   -0.8741    1.0273 N   0  0  0  0  0  0  0  0  0  0  0  0
    4.7624    0.5014    1.2256 C   0  0  0  0  0  0  0  0  0  0  0  0
    5.3808    1.1254    2.4765 C   0  0  0  0  0  0  0  0  0  0  0  0
    6.9094    1.1876    2.4064 C   0  0  0  0  0  0  0  0  0  0  0  0
    7.4901    1.8640    3.6463 C   0  0  0  0  0  0  0  0  0  0  0  0
    8.9459    1.8976    3.5625 N   0  0  0  0  0  0  0  0  0  0  0  0
    4.7372   -4.0232    2.0212 H   0  0  0  0  0  0  0  0  0  0  0  0
    6.2845   -3.2265    1.6582 H   0  0  0  0  0  0  0  0  0  0  0  0
    5.0787   -3.4837    0.3605 H   0  0  0  0  0  0  0  0  0  0  0  0
    5.9801   -1.0571    0.4503 H   0  0  0  0  0  0  0  0  0  0  0  0
    3.6699    0.5335    1.3038 H   0  0  0  0  0  0  0  0  0  0  0  0
    5.0538    1.0605    0.3303 H   0  0  0  0  0  0  0  0  0  0  0  0
    5.0796    0.5581    3.3654 H   0  0  0  0  0  0  0  0  0  0  0  0
    4.9812    2.1401    2.5935 H   0  0  0  0  0  0  0  0  0  0  0  0
    7.2122    1.7380    1.5066 H   0  0  0  0  0  0  0  0  0  0  0  0
    7.3180    0.1734    2.3175 H   0  0  0  0  0  0  0  0  0  0  0  0
    7.1903    1.3245    4.5514 H   0  0  0  0  0  0  0  0  0  0  0  0
    7.1132    2.8891    3.7274 H   0  0  0  0  0  0  0  0  0  0  0  0
    9.3091    0.9451    3.5514 H   0  0  0  0  0  0  0  0  0  0  0  0
    9.3200    2.3306    4.4064 H   0  0  0  0  0  0  0  0  0  0  0  0
  1  2  1  0  0  0  0
  1 10  1  0  0  0  0
  1 11  1  0  0  0  0
  1 12  1  0  0  0  0
  2  3  2  0  0  0  0
  2  4  1  0  0  0  0
  4  5  1  0  0  0  0
  4 13  1  0  0  0  0
  5  6  1  0  0  0  0
  5 14  1  0  0  0  0
  5 15  1  0  0  0  0
  6  7  1  0  0  0  0
  6 16  1  0  0  0  0
  6 17  1  0  0  0  0
  7  8  1  0  0  0  0
  7 18  1  0  0  0  0
  7 19  1  0  0  0  0
  8  9  1  0  0  0  0
  8 20  1  0  0  0  0
  8 21  1  0  0  0  0
  9 22  1  0  0  0  0
  9 23  1  0  0  0  0
M  END
$$$$
