CHEBI:15837
 OpenBabel04242413213D

 18 17  0  0  0  0  0  0  0  0999 V2000
    0.9021   -0.2130    0.4768 C   0  0  0  0  0  0  0  0  0  0  0  0
    2.3623   -0.2316    0.0186 C   0  0  0  0  0  0  0  0  0  0  0  0
    2.7177   -1.6185   -0.5188 C   0  0  0  0  0  0  0  0  0  0  0  0
    2.5974    0.8769   -1.0201 C   0  0  0  0  0  0  0  0  0  0  0  0
    4.0551    1.0220   -1.4438 C   0  0  0  0  0  0  0  0  0  0  0  0
    4.1932    2.1462   -2.3046 O   0  0  0  0  0  0  0  0  0  0  0  0
    0.7257   -0.9716    1.2467 H   0  0  0  0  0  0  0  0  0  0  0  0
    0.2209   -0.4120   -0.3576 H   0  0  0  0  0  0  0  0  0  0  0  0
    0.6403    0.7610    0.9038 H   0  0  0  0  0  0  0  0  0  0  0  0
    2.9918   -0.0315    0.8949 H   0  0  0  0  0  0  0  0  0  0  0  0
    2.1634   -1.8428   -1.4364 H   0  0  0  0  0  0  0  0  0  0  0  0
    2.4790   -2.3932    0.2179 H   0  0  0  0  0  0  0  0  0  0  0  0
    3.7868   -1.6988   -0.7374 H   0  0  0  0  0  0  0  0  0  0  0  0
    2.2569    1.8386   -0.6140 H   0  0  0  0  0  0  0  0  0  0  0  0
    1.9787    0.7021   -1.9100 H   0  0  0  0  0  0  0  0  0  0  0  0
    4.4136    0.1397   -1.9816 H   0  0  0  0  0  0  0  0  0  0  0  0
    4.6997    1.1836   -0.5745 H   0  0  0  0  0  0  0  0  0  0  0  0
    3.6270    1.9920   -3.0800 H   0  0  0  0  0  0  0  0  0  0  0  0
  1  2  1  0  0  0  0
  1  7  1  0  0  0  0
  1  8  1  0  0  0  0
  1  9  1  0  0  0  0
  2  3  1  0  0  0  0
  2  4  1  0  0  0  0
  2 10  1  0  0  0  0
  3 11  1  0  0  0  0
  3 12  1  0  0  0  0
  3 13  1  0  0  0  0
  4  5  1  0  0  0  0
  4 14  1  0  0  0  0
  4 15  1  0  0  0  0
  5  6  1  0  0  0  0
  5 16  1  0  0  0  0
  5 17  1  0  0  0  0
  6 18  1  0  0  0  0
M  END
$$$$
