CHEBI:17121
 OpenBabel04242415533D

  8  7  0  0  0  0  0  0  0  0999 V2000
    3.3801   -0.7143   -1.3001 O   0  0  0  0  0  0  0  0  0  0  0  0
    2.8063    0.0410   -0.4436 C   0  0  0  0  0  0  0  0  0  0  0  0
    1.6686    0.6063   -0.6179 O   0  5  0  0  0  0  0  0  0  0  0  0
    3.4665    0.2074    0.8954 C   0  0  0  0  0  0  0  0  0  0  0  0
    2.7778    0.1728    1.9238 O   0  0  0  0  0  0  0  0  0  0  0  0
    4.9460    0.4206    1.0192 C   0  0  0  0  0  0  0  0  0  0  0  0
    5.5951   -0.3760    1.7852 O   0  0  0  0  0  0  0  0  0  0  0  0
    5.4436    1.4416    0.4316 O   0  5  0  0  0  0  0  0  0  0  0  0
  1  2  2  0  0  0  0
  2  3  1  0  0  0  0
  2  4  1  0  0  0  0
  4  5  2  0  0  0  0
  4  6  1  0  0  0  0
  6  7  2  0  0  0  0
  6  8  1  0  0  0  0
M  CHG  2   3  -1   8  -1
M  END
$$$$
