CHEBI:23965
 OpenBabel04252409403D

 44 47  0  0  1  0  0  0  0  0999 V2000
    0.8907    0.4445   -0.1047 C   0  0  0  0  0  0  0  0  0  0  0  0
    2.4279    0.2509   -0.0363 C   0  0  2  0  0  0  0  0  0  0  0  0
    3.0729    0.7997   -1.3150 C   0  0  0  0  0  0  0  0  0  0  0  0
    2.6948   -0.0394   -2.5493 C   0  0  0  0  0  0  0  0  0  0  0  0
    2.9612   -1.5579   -2.3762 C   0  0  2  0  0  0  0  0  0  0  0  0
    2.5059   -2.4317   -3.5436 C   0  0  0  0  0  0  0  0  0  0  0  0
    2.4471   -1.9310   -4.8575 C   0  0  0  0  0  0  0  0  0  0  0  0
    2.0612   -2.7419   -5.9286 C   0  0  0  0  0  0  0  0  0  0  0  0
    1.7462   -4.0717   -5.6986 C   0  0  0  0  0  0  0  0  0  0  0  0
    1.3596   -4.8989   -6.7106 O   0  0  0  0  0  0  0  0  0  0  0  0
    1.8164   -4.6013   -4.4179 C   0  0  0  0  0  0  0  0  0  0  0  0
    2.2032   -3.7952   -3.3331 C   0  0  0  0  0  0  0  0  0  0  0  0
    2.2115   -4.4260   -1.9612 C   0  0  0  0  0  0  0  0  0  0  0  0
    2.8299   -3.5582   -0.8689 C   0  0  0  0  0  0  0  0  0  0  0  0
    2.3887   -2.1002   -1.0317 C   0  0  1  0  0  0  0  0  0  0  0  0
    2.8756   -1.2172    0.1191 C   0  0  2  0  0  0  0  0  0  0  0  0
    2.4526   -1.5690    1.5415 C   0  0  0  0  0  0  0  0  0  0  0  0
    2.6639   -0.2662    2.3374 C   0  0  0  0  0  0  0  0  0  0  0  0
    2.9212    0.8476    1.2999 C   0  0  0  0  0  0  0  0  0  0  0  0
    4.3087    1.1671    1.2719 O   0  0  0  0  0  0  0  0  0  0  0  0
    0.4328   -0.0638   -0.9570 H   0  0  0  0  0  0  0  0  0  0  0  0
    0.6498    1.5102   -0.1996 H   0  0  0  0  0  0  0  0  0  0  0  0
    0.3805    0.0821    0.7933 H   0  0  0  0  0  0  0  0  0  0  0  0
    4.1666    0.7954   -1.2258 H   0  0  0  0  0  0  0  0  0  0  0  0
    2.7805    1.8442   -1.4761 H   0  0  0  0  0  0  0  0  0  0  0  0
    3.2795    0.3478   -3.3926 H   0  0  0  0  0  0  0  0  0  0  0  0
    1.6425    0.1290   -2.8073 H   0  0  0  0  0  0  0  0  0  0  0  0
    4.0559   -1.6715   -2.3419 H   0  0  0  0  0  0  0  0  0  0  0  0
    2.7009   -0.8975   -5.0754 H   0  0  0  0  0  0  0  0  0  0  0  0
    2.0172   -2.3161   -6.9259 H   0  0  0  0  0  0  0  0  0  0  0  0
    1.3431   -4.3875   -7.5360 H   0  0  0  0  0  0  0  0  0  0  0  0
    1.5631   -5.6472   -4.2631 H   0  0  0  0  0  0  0  0  0  0  0  0
    2.7493   -5.3813   -1.9971 H   0  0  0  0  0  0  0  0  0  0  0  0
    1.1710   -4.6452   -1.6888 H   0  0  0  0  0  0  0  0  0  0  0  0
    3.9246   -3.6246   -0.9196 H   0  0  0  0  0  0  0  0  0  0  0  0
    2.5351   -3.9573    0.1080 H   0  0  0  0  0  0  0  0  0  0  0  0
    1.2914   -2.0860   -1.0640 H   0  0  0  0  0  0  0  0  0  0  0  0
    3.9761   -1.2601    0.1031 H   0  0  0  0  0  0  0  0  0  0  0  0
    3.0502   -2.3865    1.9575 H   0  0  0  0  0  0  0  0  0  0  0  0
    1.4014   -1.8762    1.5833 H   0  0  0  0  0  0  0  0  0  0  0  0
    3.4986   -0.3702    3.0390 H   0  0  0  0  0  0  0  0  0  0  0  0
    1.7604   -0.0517    2.9192 H   0  0  0  0  0  0  0  0  0  0  0  0
    2.3915    1.7674    1.5682 H   0  0  0  0  0  0  0  0  0  0  0  0
    4.8207    0.3428    1.2292 H   0  0  0  0  0  0  0  0  0  0  0  0
  1 21  1  0  0  0  0
  1 22  1  0  0  0  0
  1 23  1  0  0  0  0
  2  1  1  6  0  0  0
  2  3  1  0  0  0  0
  2 16  1  0  0  0  0
  2 19  1  0  0  0  0
  3  4  1  0  0  0  0
  3 24  1  0  0  0  0
  3 25  1  0  0  0  0
  4  5  1  0  0  0  0
  4 26  1  0  0  0  0
  4 27  1  0  0  0  0
  5  6  1  0  0  0  0
  5 15  1  0  0  0  0
  5 28  1  1  0  0  0
  6  7  1  0  0  0  0
  6 12  2  0  0  0  0
  7  8  2  0  0  0  0
  7 29  1  0  0  0  0
  8  9  1  0  0  0  0
  8 30  1  0  0  0  0
  9 10  1  0  0  0  0
  9 11  2  0  0  0  0
 10 31  1  0  0  0  0
 11 12  1  0  0  0  0
 11 32  1  0  0  0  0
 12 13  1  0  0  0  0
 13 14  1  0  0  0  0
 13 33  1  0  0  0  0
 13 34  1  0  0  0  0
 14 15  1  0  0  0  0
 14 35  1  0  0  0  0
 14 36  1  0  0  0  0
 15 16  1  0  0  0  0
 15 37  1  6  0  0  0
 16 17  1  0  0  0  0
 16 38  1  6  0  0  0
 17 18  1  0  0  0  0
 17 39  1  0  0  0  0
 17 40  1  0  0  0  0
 18 19  1  0  0  0  0
 18 41  1  0  0  0  0
 18 42  1  0  0  0  0
 19 20  1  0  0  0  0
 19 43  1  0  0  0  0
 20 44  1  0  0  0  0
M  END
$$$$
