CHEBI:18365
 OpenBabel04252409273D

 22 23  0  0  0  0  0  0  0  0999 V2000
    1.1089    0.1041    0.0222 O   0  0  0  0  0  0  0  0  0  0  0  0
    2.4711    0.0318    0.0248 C   0  0  0  0  0  0  0  0  0  0  0  0
    3.1328   -1.1878    0.0270 C   0  0  0  0  0  0  0  0  0  0  0  0
    4.5287   -1.1932    0.0294 C   0  0  0  0  0  0  0  0  0  0  0  0
    5.1963   -2.3977    0.0320 O   0  0  0  0  0  0  0  0  0  0  0  0
    5.2889    0.0055    0.0293 C   0  0  0  0  0  0  0  0  0  0  0  0
    6.7066    0.0669    0.0311 C   0  0  0  0  0  0  0  0  0  0  0  0
    7.4814   -1.0664    0.0324 O   0  0  0  0  0  0  0  0  0  0  0  0
    7.3990    1.2754    0.0316 C   0  0  0  0  0  0  0  0  0  0  0  0
    6.6791    2.4594    0.0302 C   0  0  0  0  0  0  0  0  0  0  0  0
    7.3050    3.6714    0.0309 O   0  0  0  0  0  0  0  0  0  0  0  0
    5.2884    2.4477    0.0281 C   0  0  0  0  0  0  0  0  0  0  0  0
    4.5819    1.2332    0.0275 C   0  0  0  0  0  0  0  0  0  0  0  0
    3.1779    1.2296    0.0252 C   0  0  0  0  0  0  0  0  0  0  0  0
    0.7391   -0.7936    0.0214 H   0  0  0  0  0  0  0  0  0  0  0  0
    2.5733   -2.1158    0.0267 H   0  0  0  0  0  0  0  0  0  0  0  0
    4.5400   -3.1168    0.0358 H   0  0  0  0  0  0  0  0  0  0  0  0
    6.8574   -1.8216    0.0314 H   0  0  0  0  0  0  0  0  0  0  0  0
    8.4834    1.2664    0.0331 H   0  0  0  0  0  0  0  0  0  0  0  0
    8.2651    3.5208    0.0330 H   0  0  0  0  0  0  0  0  0  0  0  0
    4.7576    3.3972    0.0269 H   0  0  0  0  0  0  0  0  0  0  0  0
    2.6236    2.1658    0.0236 H   0  0  0  0  0  0  0  0  0  0  0  0
  1  2  1  0  0  0  0
  1 15  1  0  0  0  0
  2  3  1  0  0  0  0
  2 14  2  0  0  0  0
  3  4  2  0  0  0  0
  3 16  1  0  0  0  0
  4  5  1  0  0  0  0
  4  6  1  0  0  0  0
  5 17  1  0  0  0  0
  6  7  1  0  0  0  0
  6 13  2  0  0  0  0
  7  8  1  0  0  0  0
  7  9  2  0  0  0  0
  8 18  1  0  0  0  0
  9 10  1  0  0  0  0
  9 19  1  0  0  0  0
 10 11  1  0  0  0  0
 10 12  2  0  0  0  0
 11 20  1  0  0  0  0
 12 13  1  0  0  0  0
 12 21  1  0  0  0  0
 13 14  1  0  0  0  0
 14 22  1  0  0  0  0
M  END
$$$$
