CHEBI:17607
 OpenBabel04242416553D

 49 51  0  0  1  0  0  0  0  0999 V2000
    4.5305   12.5346    1.2944 C   0  0  0  0  0  0  0  0  0  0  0  0
    4.2901   11.1673    0.7162 C   0  0  0  0  0  0  0  0  0  0  0  0
    4.5346   10.9438   -0.6441 C   0  0  0  0  0  0  0  0  0  0  0  0
    4.3262    9.6842   -1.2193 C   0  0  0  0  0  0  0  0  0  0  0  0
    3.8998    8.5796   -0.4286 C   0  0  0  0  0  0  0  0  0  0  0  0
    3.6581    8.8270    0.9333 C   0  0  0  0  0  0  0  0  0  0  0  0
    3.8267   10.1036    1.5084 C   0  0  0  0  0  0  0  0  0  0  0  0
    3.5394   10.2873    2.9752 C   0  0  0  0  0  0  0  0  0  0  0  0
    3.7631    7.2901   -1.0529 N   0  0  0  0  0  0  0  0  0  0  0  0
    3.2390    6.1636   -0.2454 C   0  0  0  0  0  0  0  0  0  0  0  0
    4.3910    5.3022    0.3289 C   0  0  2  0  0  0  0  0  0  0  0  0
    5.2939    6.1062    1.0941 O   0  0  0  0  0  0  0  0  0  0  0  0
    3.8311    4.1735    1.2098 C   0  0  2  0  0  0  0  0  0  0  0  0
    2.8606    3.4216    0.4588 O   0  0  0  0  0  0  0  0  0  0  0  0
    4.8843    3.1799    1.7311 C   0  0  2  0  0  0  0  0  0  0  0  0
    4.1626    2.1414    2.4378 O   0  0  0  0  0  0  0  0  0  0  0  0
    5.9307    3.7654    2.6808 C   0  0  0  0  0  0  0  0  0  0  0  0
    6.6693    2.6740    3.2480 O   0  0  0  0  0  0  0  0  0  0  0  0
    4.0084    7.1675   -2.4474 C   0  0  0  0  0  0  0  0  0  0  0  0
    3.8432    5.9839   -3.1278 N   0  0  0  0  0  0  0  0  0  0  0  0
    4.0247    5.8103   -4.4674 C   0  0  0  0  0  0  0  0  0  0  0  0
    3.8547    4.7213   -5.0048 O   0  0  0  0  0  0  0  0  0  0  0  0
    4.3995    6.9094   -5.1722 N   0  0  0  0  0  0  0  0  0  0  0  0
    4.5997    8.1414   -4.6290 C   0  0  0  0  0  0  0  0  0  0  0  0
    4.9077    9.1185   -5.3090 O   0  0  0  0  0  0  0  0  0  0  0  0
    4.4121    8.2524   -3.1524 C   0  0  0  0  0  0  0  0  0  0  0  0
    4.6413    9.4814   -2.5720 N   0  0  0  0  0  0  0  0  0  0  0  0
    4.9648   13.2142    0.5535 H   0  0  0  0  0  0  0  0  0  0  0  0
    5.2328   12.4756    2.1322 H   0  0  0  0  0  0  0  0  0  0  0  0
    3.5883   12.9733    1.6370 H   0  0  0  0  0  0  0  0  0  0  0  0
    4.8994   11.7574   -1.2669 H   0  0  0  0  0  0  0  0  0  0  0  0
    3.3494    8.0290    1.6006 H   0  0  0  0  0  0  0  0  0  0  0  0
    3.0483    9.4064    3.4023 H   0  0  0  0  0  0  0  0  0  0  0  0
    2.8649   11.1354    3.1306 H   0  0  0  0  0  0  0  0  0  0  0  0
    4.4707   10.4544    3.5249 H   0  0  0  0  0  0  0  0  0  0  0  0
    2.5841    5.5431   -0.8684 H   0  0  0  0  0  0  0  0  0  0  0  0
    2.5753    6.5083    0.5534 H   0  0  0  0  0  0  0  0  0  0  0  0
    4.9599    4.8686   -0.5025 H   0  0  0  0  0  0  0  0  0  0  0  0
    5.5467    6.8499    0.5100 H   0  0  0  0  0  0  0  0  0  0  0  0
    3.2978    4.6017    2.0682 H   0  0  0  0  0  0  0  0  0  0  0  0
    2.7231    2.6063    0.9898 H   0  0  0  0  0  0  0  0  0  0  0  0
    5.3768    2.6689    0.8957 H   0  0  0  0  0  0  0  0  0  0  0  0
    4.8586    1.6768    2.9509 H   0  0  0  0  0  0  0  0  0  0  0  0
    5.4584    4.3053    3.5073 H   0  0  0  0  0  0  0  0  0  0  0  0
    6.6387    4.4146    2.1617 H   0  0  0  0  0  0  0  0  0  0  0  0
    7.3843    3.0719    3.7771 H   0  0  0  0  0  0  0  0  0  0  0  0
    3.5513    5.1510   -2.6377 H   0  0  0  0  0  0  0  0  0  0  0  0
    4.5169    6.8085   -6.1677 H   0  0  0  0  0  0  0  0  0  0  0  0
    4.7370   10.2677   -3.2048 H   0  0  0  0  0  0  0  0  0  0  0  0
  1  2  1  0  0  0  0
  1 28  1  0  0  0  0
  1 29  1  0  0  0  0
  1 30  1  0  0  0  0
  2  3  1  0  0  0  0
  2  7  2  0  0  0  0
  3  4  2  0  0  0  0
  3 31  1  0  0  0  0
  4  5  1  0  0  0  0
  4 27  1  0  0  0  0
  5  6  2  0  0  0  0
  5  9  1  0  0  0  0
  6  7  1  0  0  0  0
  6 32  1  0  0  0  0
  7  8  1  0  0  0  0
  8 33  1  0  0  0  0
  8 34  1  0  0  0  0
  8 35  1  0  0  0  0
  9 10  1  0  0  0  0
  9 19  1  0  0  0  0
 10 36  1  0  0  0  0
 10 37  1  0  0  0  0
 11 12  1  0  0  0  0
 11 10  1  0  0  0  0
 11 38  1  1  0  0  0
 12 39  1  0  0  0  0
 13 14  1  0  0  0  0
 13 11  1  0  0  0  0
 13 40  1  6  0  0  0
 14 41  1  0  0  0  0
 15 17  1  0  0  0  0
 15 16  1  0  0  0  0
 15 13  1  0  0  0  0
 15 42  1  6  0  0  0
 16 43  1  0  0  0  0
 17 18  1  0  0  0  0
 17 44  1  0  0  0  0
 17 45  1  0  0  0  0
 18 46  1  0  0  0  0
 19 20  1  0  0  0  0
 19 26  2  0  0  0  0
 20 21  1  0  0  0  0
 20 47  1  0  0  0  0
 21 22  2  0  0  0  0
 21 23  1  0  0  0  0
 23 24  1  0  0  0  0
 23 48  1  0  0  0  0
 24 25  2  0  0  0  0
 24 26  1  0  0  0  0
 26 27  1  0  0  0  0
 27 49  1  0  0  0  0
M  END
$$$$
