CHEBI:27411
 OpenBabel04252409513D

 23 22  0  0  1  0  0  0  0  0999 V2000
    4.5107   -1.8067    0.9637 O   0  0  0  0  0  0  0  0  0  0  0  0
    4.3169   -1.1475   -0.0549 C   0  0  0  0  0  0  0  0  0  0  0  0
    5.1313    0.0626   -0.4277 C   0  0  0  0  0  0  0  0  0  0  0  0
    5.9513    0.5726    0.7600 C   0  0  1  0  0  0  0  0  0  0  0  0
    6.9442   -0.4061    1.1232 O   0  0  0  0  0  0  0  0  0  0  0  0
    6.6577    1.9048    0.4213 C   0  0  1  0  0  0  0  0  0  0  0  0
    7.4077    1.7384   -0.7979 O   0  0  0  0  0  0  0  0  0  0  0  0
    7.6367    2.3862    1.5164 C   0  0  2  0  0  0  0  0  0  0  0  0
    8.7474    1.4785    1.6186 O   0  0  0  0  0  0  0  0  0  0  0  0
    6.9916    2.5669    2.8925 C   0  0  0  0  0  0  0  0  0  0  0  0
    5.7986    3.3343    2.8039 O   0  0  0  0  0  0  0  0  0  0  0  0
    3.5562   -1.4548   -0.7928 H   0  0  0  0  0  0  0  0  0  0  0  0
    4.4321    0.8352   -0.7649 H   0  0  0  0  0  0  0  0  0  0  0  0
    5.7698   -0.2331   -1.2666 H   0  0  0  0  0  0  0  0  0  0  0  0
    5.3036    0.7116    1.6331 H   0  0  0  0  0  0  0  0  0  0  0  0
    6.4422   -1.2225    1.3438 H   0  0  0  0  0  0  0  0  0  0  0  0
    5.9029    2.6747    0.2261 H   0  0  0  0  0  0  0  0  0  0  0  0
    8.2372    1.2929   -0.5299 H   0  0  0  0  0  0  0  0  0  0  0  0
    8.0563    3.3453    1.1901 H   0  0  0  0  0  0  0  0  0  0  0  0
    8.3594    0.5743    1.6391 H   0  0  0  0  0  0  0  0  0  0  0  0
    7.6932    3.0758    3.5632 H   0  0  0  0  0  0  0  0  0  0  0  0
    6.7587    1.6004    3.3521 H   0  0  0  0  0  0  0  0  0  0  0  0
    5.5216    3.5307    3.7167 H   0  0  0  0  0  0  0  0  0  0  0  0
  1  2  2  0  0  0  0
  2  3  1  0  0  0  0
  2 12  1  0  0  0  0
  3  4  1  0  0  0  0
  3 13  1  0  0  0  0
  3 14  1  0  0  0  0
  4  5  1  0  0  0  0
  4  6  1  0  0  0  0
  4 15  1  1  0  0  0
  5 16  1  0  0  0  0
  6  7  1  0  0  0  0
  6 17  1  1  0  0  0
  7 18  1  0  0  0  0
  8 10  1  0  0  0  0
  8  9  1  0  0  0  0
  8  6  1  0  0  0  0
  8 19  1  6  0  0  0
  9 20  1  0  0  0  0
 10 11  1  0  0  0  0
 10 21  1  0  0  0  0
 10 22  1  0  0  0  0
 11 23  1  0  0  0  0
M  END
$$$$
