CHEBI:18103
 OpenBabel04242423323D

 31 31  0  0  1  0  0  0  0  0999 V2000
    6.5711    1.3563   -3.3257 C   0  0  0  0  0  0  0  0  0  0  0  0
    6.0823    2.0817   -2.1976 O   0  0  0  0  0  0  0  0  0  0  0  0
    5.3104    1.3422   -1.3540 C   0  0  0  0  0  0  0  0  0  0  0  0
    5.0367    0.1562   -1.5046 O   0  0  0  0  0  0  0  0  0  0  0  0
    4.7796    2.2069   -0.2025 C   0  0  1  0  0  0  0  0  0  0  0  0
    3.3019    2.0602   -0.1287 N   0  0  0  0  0  0  0  0  0  0  0  0
    5.4149    1.7657    1.1248 C   0  0  0  0  0  0  0  0  0  0  0  0
    6.8957    2.0598    1.1986 C   0  0  0  0  0  0  0  0  0  0  0  0
    7.3487    3.3346    1.5593 C   0  0  0  0  0  0  0  0  0  0  0  0
    8.7175    3.6191    1.6088 C   0  0  0  0  0  0  0  0  0  0  0  0
    9.6489    2.6308    1.2927 C   0  0  0  0  0  0  0  0  0  0  0  0
   11.0118    2.7838    1.3099 O   0  0  0  0  0  0  0  0  0  0  0  0
   11.7291    4.2302    1.5035 S   0  0  0  0  0  0  0  0  0  0  0  0
   11.4655    5.0457    0.3372 O   0  0  0  0  0  0  0  0  0  0  0  0
   11.4941    4.7172    2.8447 O   0  0  0  0  0  0  0  0  0  0  0  0
   13.2958    3.8646    1.3950 O   0  0  0  0  0  0  0  0  0  0  0  0
    9.2010    1.3557    0.9374 C   0  0  0  0  0  0  0  0  0  0  0  0
    7.8349    1.0701    0.8885 C   0  0  0  0  0  0  0  0  0  0  0  0
    7.1916    2.0319   -3.9208 H   0  0  0  0  0  0  0  0  0  0  0  0
    5.7382    1.0139   -3.9482 H   0  0  0  0  0  0  0  0  0  0  0  0
    7.1880    0.5116   -3.0038 H   0  0  0  0  0  0  0  0  0  0  0  0
    4.9995    3.2612   -0.4062 H   0  0  0  0  0  0  0  0  0  0  0  0
    3.0896    1.0611   -0.0530 H   0  0  0  0  0  0  0  0  0  0  0  0
    2.9022    2.3453   -1.0240 H   0  0  0  0  0  0  0  0  0  0  0  0
    5.2499    0.6934    1.2971 H   0  0  0  0  0  0  0  0  0  0  0  0
    4.9225    2.2783    1.9628 H   0  0  0  0  0  0  0  0  0  0  0  0
    6.6372    4.1188    1.8132 H   0  0  0  0  0  0  0  0  0  0  0  0
    9.0128    4.6210    1.9077 H   0  0  0  0  0  0  0  0  0  0  0  0
   13.5761    4.0654    0.4789 H   0  0  0  0  0  0  0  0  0  0  0  0
    9.9173    0.5736    0.6965 H   0  0  0  0  0  0  0  0  0  0  0  0
    7.5116    0.0691    0.6080 H   0  0  0  0  0  0  0  0  0  0  0  0
  1  2  1  0  0  0  0
  1 19  1  0  0  0  0
  1 20  1  0  0  0  0
  1 21  1  0  0  0  0
  2  3  1  0  0  0  0
  3  4  2  0  0  0  0
  3  5  1  0  0  0  0
  5  6  1  0  0  0  0
  5  7  1  0  0  0  0
  5 22  1  6  0  0  0
  6 23  1  0  0  0  0
  6 24  1  0  0  0  0
  7  8  1  0  0  0  0
  7 25  1  0  0  0  0
  7 26  1  0  0  0  0
  8  9  1  0  0  0  0
  8 18  2  0  0  0  0
  9 10  2  0  0  0  0
  9 27  1  0  0  0  0
 10 11  1  0  0  0  0
 10 28  1  0  0  0  0
 11 12  1  0  0  0  0
 11 17  2  0  0  0  0
 12 13  1  0  0  0  0
 13 14  2  0  0  0  0
 13 15  2  0  0  0  0
 13 16  1  0  0  0  0
 16 29  1  0  0  0  0
 17 18  1  0  0  0  0
 17 30  1  0  0  0  0
 18 31  1  0  0  0  0
M  END
$$$$
