CHEBI:16822
 OpenBabel04242415193D

 24 23  0  0  0  0  0  0  0  0999 V2000
   -0.5297    0.1219   -3.8339 C   0  0  0  0  0  0  0  0  0  0  0  0
   -0.1652   -1.3212   -4.1530 N   0  3  0  0  0  0  0  0  0  0  0  0
   -1.3816   -2.2057   -4.0079 C   0  0  0  0  0  0  0  0  0  0  0  0
    0.3215   -1.3584   -5.6061 C   0  0  0  0  0  0  0  0  0  0  0  0
    0.9679   -1.7381   -3.1647 C   0  0  0  0  0  0  0  0  0  0  0  0
    1.4411   -3.1963   -3.2657 C   0  0  0  0  0  0  0  0  0  0  0  0
    1.9632   -3.5387   -4.5310 O   0  0  0  0  0  0  0  0  0  0  0  0
    3.4686   -3.0356   -4.9059 S   0  0  0  0  0  0  0  0  0  0  0  0
    3.6643   -3.5849   -6.2377 O   0  0  0  0  0  0  0  0  0  0  0  0
    3.3321   -1.5828   -4.8652 O   0  0  0  0  0  0  0  0  0  0  0  0
    4.2839   -3.5995   -3.8419 O   0  5  0  0  0  0  0  0  0  0  0  0
   -1.3165    0.4450   -4.5223 H   0  0  0  0  0  0  0  0  0  0  0  0
    0.3618    0.7447   -3.9573 H   0  0  0  0  0  0  0  0  0  0  0  0
   -0.8900    0.1690   -2.8019 H   0  0  0  0  0  0  0  0  0  0  0  0
   -2.1811   -1.8028   -4.6376 H   0  0  0  0  0  0  0  0  0  0  0  0
   -1.6908   -2.2015   -2.9586 H   0  0  0  0  0  0  0  0  0  0  0  0
   -1.1320   -3.2184   -4.3341 H   0  0  0  0  0  0  0  0  0  0  0  0
   -0.4762   -0.9456   -6.2332 H   0  0  0  0  0  0  0  0  0  0  0  0
    0.4952   -2.3908   -5.9093 H   0  0  0  0  0  0  0  0  0  0  0  0
    1.2103   -0.7338   -5.6990 H   0  0  0  0  0  0  0  0  0  0  0  0
    0.5528   -1.5839   -2.1605 H   0  0  0  0  0  0  0  0  0  0  0  0
    1.7751   -1.0142   -3.2892 H   0  0  0  0  0  0  0  0  0  0  0  0
    0.6085   -3.8767   -3.0612 H   0  0  0  0  0  0  0  0  0  0  0  0
    2.1802   -3.3936   -2.4806 H   0  0  0  0  0  0  0  0  0  0  0  0
  1  2  1  0  0  0  0
  1 12  1  0  0  0  0
  1 13  1  0  0  0  0
  1 14  1  0  0  0  0
  2  3  1  0  0  0  0
  2  4  1  0  0  0  0
  2  5  1  0  0  0  0
  3 15  1  0  0  0  0
  3 16  1  0  0  0  0
  3 17  1  0  0  0  0
  4 18  1  0  0  0  0
  4 19  1  0  0  0  0
  4 20  1  0  0  0  0
  5  6  1  0  0  0  0
  5 21  1  0  0  0  0
  5 22  1  0  0  0  0
  6  7  1  0  0  0  0
  6 23  1  0  0  0  0
  6 24  1  0  0  0  0
  7  8  1  0  0  0  0
  8  9  2  0  0  0  0
  8 10  2  0  0  0  0
  8 11  1  0  0  0  0
M  CHG  2   2   1  11  -1
M  END
$$$$
