CHEBI:27445
 OpenBabel04252410023D

129133  0  0  1  0  0  0  0  0999 V2000
   -7.8043    0.2563   10.1423 O   0  0  0  0  0  0  0  0  0  0  0  0
   -7.3294    1.2700    9.6361 C   0  0  0  0  0  0  0  0  0  0  0  0
   -6.8859    1.3197    8.1868 C   0  0  2  0  0  0  0  0  0  0  0  0
   -6.9397    0.0558    7.5405 O   0  0  0  0  0  0  0  0  0  0  0  0
   -5.5176    1.9963    7.9520 C   0  0  1  0  0  0  0  0  0  0  0  0
   -5.6769    2.6920    6.6774 O   0  0  0  0  0  0  0  0  0  0  0  0
   -4.2459    1.0931    7.8020 C   0  0  2  0  0  0  0  0  0  0  0  0
   -3.2569    1.7602    6.9549 O   0  0  0  0  0  0  0  0  0  0  0  0
   -2.7027    2.9885    7.4260 C   0  0  1  0  0  0  0  0  0  0  0  0
   -1.4018    2.8103    7.9856 O   0  0  0  0  0  0  0  0  0  0  0  0
   -0.4224    2.3051    7.0514 C   0  0  2  0  0  0  0  0  0  0  0  0
    0.9208    2.3412    7.7991 C   0  0  0  0  0  0  0  0  0  0  0  0
    1.2146    3.6745    8.2288 O   0  0  0  0  0  0  0  0  0  0  0  0
   -0.3137    3.1132    5.7299 C   0  0  1  0  0  0  0  0  0  0  0  0
    0.4670    2.3467    4.7878 O   0  0  0  0  0  0  0  0  0  0  0  0
    1.0532    3.1306    3.7301 C   0  0  1  0  0  0  0  0  0  0  0  0
    2.4718    3.0308    3.8972 O   0  0  0  0  0  0  0  0  0  0  0  0
    3.2404    2.6396    2.7517 C   0  0  2  0  0  0  0  0  0  0  0  0
    3.4438    3.8475    1.8109 C   0  0  0  0  0  0  0  0  0  0  0  0
    4.1836    3.4966    0.6518 O   0  0  0  0  0  0  0  0  0  0  0  0
    2.7107    1.3494    2.0709 C   0  0  1  0  0  0  0  0  0  0  0  0
    3.1779    0.2087    2.8460 O   0  0  0  0  0  0  0  0  0  0  0  0
    3.2140   -1.0465    2.1453 C   0  0  1  0  0  0  0  0  0  0  0  0
    4.3269   -1.8141    2.6236 O   0  0  0  0  0  0  0  0  0  0  0  0
    4.2843   -2.1456    4.0269 C   0  0  2  0  0  0  0  0  0  0  0  0
    5.4290   -3.1603    4.2315 C   0  0  0  0  0  0  0  0  0  0  0  0
    5.5824   -3.6182    5.5634 O   0  0  0  0  0  0  0  0  0  0  0  0
    2.9248   -2.7035    4.5632 C   0  0  1  0  0  0  0  0  0  0  0  0
    2.8924   -2.4937    5.9983 O   0  0  0  0  0  0  0  0  0  0  0  0
    1.8314   -3.1735    6.6889 C   0  0  1  0  0  0  0  0  0  0  0  0
    2.3207   -4.1173    7.6447 O   0  0  0  0  0  0  0  0  0  0  0  0
    2.5296   -3.6714    8.9982 C   0  0  2  0  0  0  0  0  0  0  0  0
    1.4277   -4.2148    9.9320 C   0  0  0  0  0  0  0  0  0  0  0  0
    0.2370   -3.4281    9.9170 O   0  0  0  0  0  0  0  0  0  0  0  0
    2.7710   -2.1573    9.1380 C   0  0  1  0  0  0  0  0  0  0  0  0
    4.0968   -1.9656    8.6101 O   0  0  0  0  0  0  0  0  0  0  0  0
    4.7039   -0.6933    8.7886 C   0  0  1  0  0  0  0  0  0  0  0  0
    4.6942   -0.2434   10.1375 O   0  0  0  0  0  0  0  0  0  0  0  0
    5.4326   -1.0789   11.0499 C   0  0  2  0  0  0  0  0  0  0  0  0
    5.3068   -0.4152   12.4318 C   0  0  0  0  0  0  0  0  0  0  0  0
    5.6148   -1.3066   13.4919 O   0  0  0  0  0  0  0  0  0  0  0  0
    6.9003   -1.2401   10.6076 C   0  0  1  0  0  0  0  0  0  0  0  0
    7.6109   -2.1824   11.4132 O   0  0  0  0  0  0  0  0  0  0  0  0
    6.9712   -1.6985    9.1461 C   0  0  2  0  0  0  0  0  0  0  0  0
    8.3500   -1.6975    8.7312 O   0  0  0  0  0  0  0  0  0  0  0  0
    6.1550   -0.7585    8.2587 C   0  0  1  0  0  0  0  0  0  0  0  0
    6.2339   -1.2086    6.8935 O   0  0  0  0  0  0  0  0  0  0  0  0
    1.6844   -1.3346    8.4106 C   0  0  2  0  0  0  0  0  0  0  0  0
    0.7197   -0.8276    9.3589 O   0  0  0  0  0  0  0  0  0  0  0  0
    0.9176   -2.1244    7.3317 C   0  0  1  0  0  0  0  0  0  0  0  0
    0.3356   -1.2327    6.3601 O   0  0  0  0  0  0  0  0  0  0  0  0
    1.7413   -1.9946    3.8664 C   0  0  2  0  0  0  0  0  0  0  0  0
    0.4822   -2.6587    4.0720 O   0  0  0  0  0  0  0  0  0  0  0  0
    1.9777   -1.9341    2.3625 C   0  0  1  0  0  0  0  0  0  0  0  0
    0.7940   -1.4958    1.6877 O   0  0  0  0  0  0  0  0  0  0  0  0
    1.1769    1.3277    2.0024 C   0  0  2  0  0  0  0  0  0  0  0  0
    0.7956    0.9337    0.6733 O   0  0  0  0  0  0  0  0  0  0  0  0
    0.5195    2.6520    2.3536 C   0  0  1  0  0  0  0  0  0  0  0  0
   -0.9087    2.4931    2.3357 O   0  0  0  0  0  0  0  0  0  0  0  0
   -1.7152    3.3996    5.1724 C   0  0  2  0  0  0  0  0  0  0  0  0
   -1.6645    4.3447    4.0786 O   0  0  0  0  0  0  0  0  0  0  0  0
   -2.6068    3.9871    6.2611 C   0  0  1  0  0  0  0  0  0  0  0  0
   -3.8634    4.3341    5.6639 O   0  0  0  0  0  0  0  0  0  0  0  0
   -3.5452    0.5454    9.0746 C   0  0  2  0  0  0  0  0  0  0  0  0
   -2.5668   -0.4289    8.6660 O   0  0  0  0  0  0  0  0  0  0  0  0
   -4.4543   -0.1497   10.0810 C   0  0  0  0  0  0  0  0  0  0  0  0
   -5.0531    0.8163   10.9360 O   0  0  0  0  0  0  0  0  0  0  0  0
   -7.2665    2.2185   10.1980 H   0  0  0  0  0  0  0  0  0  0  0  0
   -7.6599    1.9347    7.7062 H   0  0  0  0  0  0  0  0  0  0  0  0
   -7.6118   -0.4709    8.0200 H   0  0  0  0  0  0  0  0  0  0  0  0
   -5.3466    2.7818    8.6948 H   0  0  0  0  0  0  0  0  0  0  0  0
   -5.9220    1.9941    6.0310 H   0  0  0  0  0  0  0  0  0  0  0  0
   -4.5240    0.2283    7.1874 H   0  0  0  0  0  0  0  0  0  0  0  0
   -3.3332    3.4262    8.2042 H   0  0  0  0  0  0  0  0  0  0  0  0
   -0.6609    1.2584    6.8312 H   0  0  0  0  0  0  0  0  0  0  0  0
    1.7475    1.9881    7.1762 H   0  0  0  0  0  0  0  0  0  0  0  0
    0.8740    1.7285    8.7034 H   0  0  0  0  0  0  0  0  0  0  0  0
    0.4456    3.9487    8.7634 H   0  0  0  0  0  0  0  0  0  0  0  0
    0.1940    4.0668    5.9253 H   0  0  0  0  0  0  0  0  0  0  0  0
    0.8009    4.1892    3.8517 H   0  0  0  0  0  0  0  0  0  0  0  0
    4.2380    2.3988    3.1423 H   0  0  0  0  0  0  0  0  0  0  0  0
    2.5055    4.3055    1.4949 H   0  0  0  0  0  0  0  0  0  0  0  0
    3.9902    4.6336    2.3452 H   0  0  0  0  0  0  0  0  0  0  0  0
    4.1967    4.2771    0.0692 H   0  0  0  0  0  0  0  0  0  0  0  0
    3.1602    1.2664    1.0747 H   0  0  0  0  0  0  0  0  0  0  0  0
    3.3750   -0.8769    1.0754 H   0  0  0  0  0  0  0  0  0  0  0  0
    4.5339   -1.2399    4.5925 H   0  0  0  0  0  0  0  0  0  0  0  0
    5.2637   -4.0356    3.5914 H   0  0  0  0  0  0  0  0  0  0  0  0
    6.3797   -2.7247    3.9016 H   0  0  0  0  0  0  0  0  0  0  0  0
    5.7095   -2.8362    6.1393 H   0  0  0  0  0  0  0  0  0  0  0  0
    2.8688   -3.7826    4.3687 H   0  0  0  0  0  0  0  0  0  0  0  0
    1.2561   -3.7757    5.9824 H   0  0  0  0  0  0  0  0  0  0  0  0
    3.4467   -4.1944    9.3008 H   0  0  0  0  0  0  0  0  0  0  0  0
    1.1637   -5.2388    9.6479 H   0  0  0  0  0  0  0  0  0  0  0  0
    1.7861   -4.2159   10.9666 H   0  0  0  0  0  0  0  0  0  0  0  0
   -0.4863   -4.0182   10.2059 H   0  0  0  0  0  0  0  0  0  0  0  0
    2.7884   -1.9031   10.2041 H   0  0  0  0  0  0  0  0  0  0  0  0
    4.1638    0.0376    8.1802 H   0  0  0  0  0  0  0  0  0  0  0  0
    4.9628   -2.0688   11.1075 H   0  0  0  0  0  0  0  0  0  0  0  0
    5.9575    0.4646   12.4962 H   0  0  0  0  0  0  0  0  0  0  0  0
    4.2797   -0.0635   12.5837 H   0  0  0  0  0  0  0  0  0  0  0  0
    5.7228   -0.7705   14.2955 H   0  0  0  0  0  0  0  0  0  0  0  0
    7.4265   -0.2818   10.7028 H   0  0  0  0  0  0  0  0  0  0  0  0
    8.4511   -2.3484   10.9415 H   0  0  0  0  0  0  0  0  0  0  0  0
    6.6340   -2.7379    9.0482 H   0  0  0  0  0  0  0  0  0  0  0  0
    8.3267   -1.9167    7.7780 H   0  0  0  0  0  0  0  0  0  0  0  0
    6.6119    0.2383    8.2903 H   0  0  0  0  0  0  0  0  0  0  0  0
    5.7756   -0.5329    6.3598 H   0  0  0  0  0  0  0  0  0  0  0  0
    2.1281   -0.4447    7.9600 H   0  0  0  0  0  0  0  0  0  0  0  0
    0.3118   -1.6272    9.7640 H   0  0  0  0  0  0  0  0  0  0  0  0
    0.0564   -2.6360    7.7653 H   0  0  0  0  0  0  0  0  0  0  0  0
    0.9247   -0.4600    6.2772 H   0  0  0  0  0  0  0  0  0  0  0  0
    1.6190   -0.9831    4.2671 H   0  0  0  0  0  0  0  0  0  0  0  0
    0.0550   -2.1860    4.8237 H   0  0  0  0  0  0  0  0  0  0  0  0
    2.1712   -2.9451    1.9827 H   0  0  0  0  0  0  0  0  0  0  0  0
    0.0645   -1.9423    2.1722 H   0  0  0  0  0  0  0  0  0  0  0  0
    0.7627    0.5909    2.6963 H   0  0  0  0  0  0  0  0  0  0  0  0
    0.5951   -0.0256    0.7440 H   0  0  0  0  0  0  0  0  0  0  0  0
    0.7297    3.3819    1.5697 H   0  0  0  0  0  0  0  0  0  0  0  0
   -1.2794    3.3027    2.7421 H   0  0  0  0  0  0  0  0  0  0  0  0
   -2.1549    2.4875    4.7510 H   0  0  0  0  0  0  0  0  0  0  0  0
   -2.5799    4.7033    4.0351 H   0  0  0  0  0  0  0  0  0  0  0  0
   -2.1664    4.9273    6.6143 H   0  0  0  0  0  0  0  0  0  0  0  0
   -4.5196    3.6590    5.9507 H   0  0  0  0  0  0  0  0  0  0  0  0
   -3.0092    1.3594    9.5750 H   0  0  0  0  0  0  0  0  0  0  0  0
   -1.6997   -0.1433    9.0119 H   0  0  0  0  0  0  0  0  0  0  0  0
   -3.8780   -0.8392   10.7081 H   0  0  0  0  0  0  0  0  0  0  0  0
   -5.2282   -0.7416    9.5822 H   0  0  0  0  0  0  0  0  0  0  0  0
   -5.6062    0.3078   11.5633 H   0  0  0  0  0  0  0  0  0  0  0  0
  1  2  2  0  0  0  0
  2 68  1  0  0  0  0
  3  5  1  0  0  0  0
  3  4  1  0  0  0  0
  3  2  1  0  0  0  0
  3 69  1  6  0  0  0
  4 70  1  0  0  0  0
  5  6  1  0  0  0  0
  5 71  1  6  0  0  0
  6 72  1  0  0  0  0
  7  8  1  0  0  0  0
  7  5  1  0  0  0  0
  7 73  1  1  0  0  0
  8  9  1  0  0  0  0
  9 10  1  0  0  0  0
  9 62  1  0  0  0  0
  9 74  1  1  0  0  0
 10 11  1  0  0  0  0
 11 14  1  0  0  0  0
 11 12  1  0  0  0  0
 11 75  1  6  0  0  0
 12 13  1  0  0  0  0
 12 76  1  0  0  0  0
 12 77  1  0  0  0  0
 13 78  1  0  0  0  0
 14 15  1  0  0  0  0
 14 60  1  0  0  0  0
 14 79  1  1  0  0  0
 15 16  1  0  0  0  0
 16 17  1  0  0  0  0
 16 58  1  0  0  0  0
 16 80  1  1  0  0  0
 17 18  1  0  0  0  0
 18 21  1  0  0  0  0
 18 19  1  0  0  0  0
 18 81  1  1  0  0  0
 19 20  1  0  0  0  0
 19 82  1  0  0  0  0
 19 83  1  0  0  0  0
 20 84  1  0  0  0  0
 21 22  1  0  0  0  0
 21 56  1  0  0  0  0
 21 85  1  6  0  0  0
 22 23  1  0  0  0  0
 23 24  1  0  0  0  0
 23 54  1  0  0  0  0
 23 86  1  6  0  0  0
 24 25  1  0  0  0  0
 25 28  1  0  0  0  0
 25 26  1  0  0  0  0
 25 87  1  1  0  0  0
 26 27  1  0  0  0  0
 26 88  1  0  0  0  0
 26 89  1  0  0  0  0
 27 90  1  0  0  0  0
 28 29  1  0  0  0  0
 28 52  1  0  0  0  0
 28 91  1  6  0  0  0
 29 30  1  0  0  0  0
 30 31  1  0  0  0  0
 30 50  1  0  0  0  0
 30 92  1  6  0  0  0
 31 32  1  0  0  0  0
 32 35  1  0  0  0  0
 32 33  1  0  0  0  0
 32 93  1  1  0  0  0
 33 34  1  0  0  0  0
 33 94  1  0  0  0  0
 33 95  1  0  0  0  0
 34 96  1  0  0  0  0
 35 36  1  0  0  0  0
 35 48  1  0  0  0  0
 35 97  1  1  0  0  0
 36 37  1  0  0  0  0
 37 38  1  0  0  0  0
 37 46  1  0  0  0  0
 37 98  1  6  0  0  0
 38 39  1  0  0  0  0
 39 42  1  0  0  0  0
 39 40  1  0  0  0  0
 39 99  1  1  0  0  0
 40 41  1  0  0  0  0
 40100  1  0  0  0  0
 40101  1  0  0  0  0
 41102  1  0  0  0  0
 42 43  1  0  0  0  0
 42 44  1  0  0  0  0
 42103  1  1  0  0  0
 43104  1  0  0  0  0
 44 45  1  0  0  0  0
 44 46  1  0  0  0  0
 44105  1  6  0  0  0
 45106  1  0  0  0  0
 46 47  1  0  0  0  0
 46107  1  1  0  0  0
 47108  1  0  0  0  0
 48 49  1  0  0  0  0
 48 50  1  0  0  0  0
 48109  1  6  0  0  0
 49110  1  0  0  0  0
 50 51  1  0  0  0  0
 50111  1  1  0  0  0
 51112  1  0  0  0  0
 52 53  1  0  0  0  0
 52 54  1  0  0  0  0
 52113  1  1  0  0  0
 53114  1  0  0  0  0
 54 55  1  0  0  0  0
 54115  1  6  0  0  0
 55116  1  0  0  0  0
 56 57  1  0  0  0  0
 56 58  1  0  0  0  0
 56117  1  1  0  0  0
 57118  1  0  0  0  0
 58 59  1  0  0  0  0
 58119  1  6  0  0  0
 59120  1  0  0  0  0
 60 61  1  0  0  0  0
 60 62  1  0  0  0  0
 60121  1  6  0  0  0
 61122  1  0  0  0  0
 62 63  1  0  0  0  0
 62123  1  1  0  0  0
 63124  1  0  0  0  0
 64 66  1  0  0  0  0
 64 65  1  0  0  0  0
 64  7  1  0  0  0  0
 64125  1  1  0  0  0
 65126  1  0  0  0  0
 66 67  1  0  0  0  0
 66127  1  0  0  0  0
 66128  1  0  0  0  0
 67129  1  0  0  0  0
M  END
$$$$
