CHEBI:16932
 OpenBabel04242415333D

 85 87  0  0  1  0  0  0  0  0999 V2000
    6.9102    0.4693   -0.3032 C   0  0  0  0  0  0  0  0  0  0  0  0
    5.8681   -0.4858   -0.8085 C   0  0  0  0  0  0  0  0  0  0  0  0
    5.1561   -0.2305   -1.7764 O   0  0  0  0  0  0  0  0  0  0  0  0
    5.7319   -1.6923   -0.1913 N   0  0  0  0  0  0  0  0  0  0  0  0
    6.3643   -2.1844    1.0516 C   0  0  1  0  0  0  0  0  0  0  0  0
    5.4264   -1.9584    2.2504 C   0  0  0  0  0  0  0  0  0  0  0  0
    4.2210   -2.6685    2.0510 O   0  0  0  0  0  0  0  0  0  0  0  0
    2.9768   -2.2833    2.9867 P   0  0  0  0  0  0  0  0  0  0  0  0
    3.1941   -1.1846    3.9686 O   0  0  0  0  0  0  0  0  0  0  0  0
    1.8773   -1.8911    1.8921 O   0  0  0  0  0  0  0  0  0  0  0  0
    2.4769   -3.6786    3.5589 O   0  0  0  0  0  0  0  0  0  0  0  0
    1.2593   -3.7740    4.5721 P   0  0  0  0  0  0  0  0  0  0  0  0
    0.1402   -2.8151    4.3305 O   0  0  0  0  0  0  0  0  0  0  0  0
    1.9492   -3.6600    6.0118 O   0  0  0  0  0  0  0  0  0  0  0  0
    0.8625   -5.3340    4.5492 O   0  0  0  0  0  0  0  0  0  0  0  0
   -0.5019   -5.6591    4.7884 C   0  0  0  0  0  0  0  0  0  0  0  0
   -0.8864   -5.5953    6.2724 C   0  0  1  0  0  0  0  0  0  0  0  0
   -0.4906   -4.3420    6.8809 O   0  0  0  0  0  0  0  0  0  0  0  0
   -1.5006   -4.0239    7.8641 C   0  0  1  0  0  0  0  0  0  0  0  0
   -1.5009   -2.5894    8.1793 N   0  0  0  0  0  0  0  0  0  0  0  0
   -0.7407   -1.6781    7.4717 C   0  0  0  0  0  0  0  0  0  0  0  0
   -0.6913   -0.3830    7.7890 C   0  0  0  0  0  0  0  0  0  0  0  0
   -1.4790    0.0964    8.9299 C   0  0  0  0  0  0  0  0  0  0  0  0
   -1.4458    1.2716    9.2771 O   0  0  0  0  0  0  0  0  0  0  0  0
   -2.2411   -0.8451    9.5566 N   0  0  0  0  0  0  0  0  0  0  0  0
   -2.3017   -2.1754    9.2383 C   0  0  0  0  0  0  0  0  0  0  0  0
   -3.0451   -2.9375    9.8544 O   0  0  0  0  0  0  0  0  0  0  0  0
   -2.8256   -4.5266    7.2710 C   0  0  2  0  0  0  0  0  0  0  0  0
   -3.8210   -4.9110    8.2232 O   0  0  0  0  0  0  0  0  0  0  0  0
   -2.3996   -5.7469    6.4622 C   0  0  2  0  0  0  0  0  0  0  0  0
   -2.6789   -6.9542    7.1743 O   0  0  0  0  0  0  0  0  0  0  0  0
    6.1115   -2.3791    3.4176 O   0  0  0  0  0  0  0  0  0  0  0  0
    6.2113   -3.7977    3.5250 C   0  0  2  0  0  0  0  0  0  0  0  0
    7.1256   -4.1263    4.7220 C   0  0  0  0  0  0  0  0  0  0  0  0
    6.6199   -3.5966    5.9464 O   0  0  0  0  0  0  0  0  0  0  0  0
    6.7389   -4.4848    2.2481 C   0  0  1  0  0  0  0  0  0  0  0  0
    6.0004   -5.7130    2.0622 O   0  0  0  0  0  0  0  0  0  0  0  0
    6.7174   -3.6870    0.9110 C   0  0  2  0  0  0  0  0  0  0  0  0
    8.0295   -3.9062    0.3256 O   0  0  0  0  0  0  0  0  0  0  0  0
    8.2997   -3.3430   -0.9593 C   0  0  2  0  0  0  0  0  0  0  0  0
    7.4773   -3.9910   -2.0634 C   0  0  0  0  0  0  0  0  0  0  0  0
    9.8015   -3.5467   -1.2278 C   0  0  0  0  0  0  0  0  0  0  0  0
   10.5599   -2.6098   -1.4520 O   0  0  0  0  0  0  0  0  0  0  0  0
   10.2356   -4.8535   -1.1479 N   0  0  0  0  0  0  0  0  0  0  0  0
   11.5858   -5.3165   -1.5145 C   0  0  1  0  0  0  0  0  0  0  0  0
   12.0707   -4.7951   -2.8642 C   0  0  0  0  0  0  0  0  0  0  0  0
   12.6509   -5.0961   -0.4271 C   0  0  0  0  0  0  0  0  0  0  0  0
   13.8219   -5.4319   -0.5395 O   0  0  0  0  0  0  0  0  0  0  0  0
   12.1644   -4.5570    0.7153 O   0  0  0  0  0  0  0  0  0  0  0  0
    6.8439    1.4045   -0.8674 H   0  0  0  0  0  0  0  0  0  0  0  0
    7.9083    0.0489   -0.4467 H   0  0  0  0  0  0  0  0  0  0  0  0
    6.7388    0.6913    0.7525 H   0  0  0  0  0  0  0  0  0  0  0  0
    4.9412   -2.2159   -0.5569 H   0  0  0  0  0  0  0  0  0  0  0  0
    7.2903   -1.6235    1.2200 H   0  0  0  0  0  0  0  0  0  0  0  0
    5.2132   -0.8868    2.3385 H   0  0  0  0  0  0  0  0  0  0  0  0
    1.3345   -1.1377    2.2001 H   0  0  0  0  0  0  0  0  0  0  0  0
    1.2752   -3.8143    6.7087 H   0  0  0  0  0  0  0  0  0  0  0  0
   -0.6623   -6.6788    4.4203 H   0  0  0  0  0  0  0  0  0  0  0  0
   -1.1317   -4.9987    4.1842 H   0  0  0  0  0  0  0  0  0  0  0  0
   -0.3369   -6.3777    6.8108 H   0  0  0  0  0  0  0  0  0  0  0  0
   -1.2636   -4.5665    8.7892 H   0  0  0  0  0  0  0  0  0  0  0  0
   -0.1653   -2.0332    6.6291 H   0  0  0  0  0  0  0  0  0  0  0  0
   -0.0917    0.3360    7.2459 H   0  0  0  0  0  0  0  0  0  0  0  0
   -2.8034   -0.5292   10.3316 H   0  0  0  0  0  0  0  0  0  0  0  0
   -3.2523   -3.7681    6.6043 H   0  0  0  0  0  0  0  0  0  0  0  0
   -3.8161   -4.2422    8.9456 H   0  0  0  0  0  0  0  0  0  0  0  0
   -2.9506   -5.7975    5.5170 H   0  0  0  0  0  0  0  0  0  0  0  0
   -3.4898   -6.7615    7.6954 H   0  0  0  0  0  0  0  0  0  0  0  0
    5.2141   -4.1758    3.7829 H   0  0  0  0  0  0  0  0  0  0  0  0
    8.1181   -3.6876    4.5742 H   0  0  0  0  0  0  0  0  0  0  0  0
    7.2354   -5.2083    4.8448 H   0  0  0  0  0  0  0  0  0  0  0  0
    5.6762   -3.8187    6.0154 H   0  0  0  0  0  0  0  0  0  0  0  0
    7.7666   -4.8206    2.4307 H   0  0  0  0  0  0  0  0  0  0  0  0
    5.0636   -5.4869    1.9094 H   0  0  0  0  0  0  0  0  0  0  0  0
    5.9935   -4.1684    0.2406 H   0  0  0  0  0  0  0  0  0  0  0  0
    8.1516   -2.2615   -0.9432 H   0  0  0  0  0  0  0  0  0  0  0  0
    6.4651   -3.5763   -2.0850 H   0  0  0  0  0  0  0  0  0  0  0  0
    7.3732   -5.0693   -1.9042 H   0  0  0  0  0  0  0  0  0  0  0  0
    7.9252   -3.8229   -3.0482 H   0  0  0  0  0  0  0  0  0  0  0  0
    9.5555   -5.5517   -0.8612 H   0  0  0  0  0  0  0  0  0  0  0  0
   11.4788   -6.4062   -1.5901 H   0  0  0  0  0  0  0  0  0  0  0  0
   12.2499   -3.7156   -2.8496 H   0  0  0  0  0  0  0  0  0  0  0  0
   11.3413   -5.0082   -3.6523 H   0  0  0  0  0  0  0  0  0  0  0  0
   13.0198   -5.2656   -3.1445 H   0  0  0  0  0  0  0  0  0  0  0  0
   11.2291   -4.3013    0.5927 H   0  0  0  0  0  0  0  0  0  0  0  0
  1  2  1  0  0  0  0
  1 50  1  0  0  0  0
  1 51  1  0  0  0  0
  1 52  1  0  0  0  0
  2  3  2  0  0  0  0
  2  4  1  0  0  0  0
  4  5  1  0  0  0  0
  4 53  1  0  0  0  0
  5  6  1  0  0  0  0
  5 38  1  0  0  0  0
  5 54  1  1  0  0  0
  6  7  1  0  0  0  0
  6 32  1  0  0  0  0
  6 55  1  0  0  0  0
  7  8  1  0  0  0  0
  8  9  2  0  0  0  0
  8 10  1  0  0  0  0
  8 11  1  0  0  0  0
 10 56  1  0  0  0  0
 11 12  1  0  0  0  0
 12 13  2  0  0  0  0
 12 14  1  0  0  0  0
 12 15  1  0  0  0  0
 14 57  1  0  0  0  0
 15 16  1  0  0  0  0
 16 17  1  0  0  0  0
 16 58  1  0  0  0  0
 16 59  1  0  0  0  0
 17 18  1  0  0  0  0
 17 30  1  0  0  0  0
 17 60  1  1  0  0  0
 18 19  1  0  0  0  0
 19 20  1  0  0  0  0
 19 28  1  0  0  0  0
 19 61  1  1  0  0  0
 20 21  1  0  0  0  0
 20 26  1  0  0  0  0
 21 22  2  0  0  0  0
 21 62  1  0  0  0  0
 22 23  1  0  0  0  0
 22 63  1  0  0  0  0
 23 24  2  0  0  0  0
 23 25  1  0  0  0  0
 25 26  1  0  0  0  0
 25 64  1  0  0  0  0
 26 27  2  0  0  0  0
 28 29  1  0  0  0  0
 28 30  1  0  0  0  0
 28 65  1  6  0  0  0
 29 66  1  0  0  0  0
 30 31  1  0  0  0  0
 30 67  1  6  0  0  0
 31 68  1  0  0  0  0
 32 33  1  0  0  0  0
 33 34  1  0  0  0  0
 33 36  1  0  0  0  0
 33 69  1  1  0  0  0
 34 35  1  0  0  0  0
 34 70  1  0  0  0  0
 34 71  1  0  0  0  0
 35 72  1  0  0  0  0
 36 37  1  0  0  0  0
 36 38  1  0  0  0  0
 36 73  1  1  0  0  0
 37 74  1  0  0  0  0
 38 39  1  0  0  0  0
 38 75  1  6  0  0  0
 40 42  1  0  0  0  0
 40 41  1  0  0  0  0
 40 39  1  0  0  0  0
 40 76  1  1  0  0  0
 41 77  1  0  0  0  0
 41 78  1  0  0  0  0
 41 79  1  0  0  0  0
 42 43  2  0  0  0  0
 42 44  1  0  0  0  0
 44 45  1  0  0  0  0
 44 80  1  0  0  0  0
 45 46  1  0  0  0  0
 45 47  1  0  0  0  0
 45 81  1  6  0  0  0
 46 82  1  0  0  0  0
 46 83  1  0  0  0  0
 46 84  1  0  0  0  0
 47 48  2  0  0  0  0
 47 49  1  0  0  0  0
 49 85  1  0  0  0  0
M  END
$$$$
