CHEBI:4474
 OpenBabel04242410583D

 41 43  0  0  1  0  0  0  0  0999 V2000
    0.7559   -0.3918   -0.0562 C   0  0  0  0  0  0  0  0  0  0  0  0
    2.3100   -0.1967   -0.0499 C   0  0  1  0  0  0  0  0  0  0  0  0
    2.8161   -0.9238    1.2391 C   0  0  0  0  0  0  0  0  0  0  0  0
    4.2943   -1.2900    1.3745 C   0  0  0  0  0  0  0  0  0  0  0  0
    5.2558   -0.1397    1.6232 C   0  0  0  0  0  0  0  0  0  0  0  0
    5.7718    0.5291    0.3544 C   0  0  0  0  0  0  0  0  0  0  0  0
    5.1208    1.8693    0.0447 C   0  0  0  0  0  0  0  0  0  0  0  0
    3.7945    1.8925   -0.7317 C   0  0  1  0  0  0  0  0  0  0  0  0
    3.8983    1.3155   -2.1478 C   0  0  0  0  0  0  0  0  0  0  0  0
    3.6361   -0.1611   -2.2609 C   0  0  0  0  0  0  0  0  0  0  0  0
    4.1359   -0.8255   -3.3988 C   0  0  0  0  0  0  0  0  0  0  0  0
    3.9151   -2.1866   -3.5952 C   0  0  0  0  0  0  0  0  0  0  0  0
    3.1784   -2.8883   -2.6567 C   0  0  0  0  0  0  0  0  0  0  0  0
    2.9387   -4.2236   -2.7929 O   0  0  0  0  0  0  0  0  0  0  0  0
    2.6592   -2.2466   -1.5369 C   0  0  0  0  0  0  0  0  0  0  0  0
    2.8736   -0.8689   -1.3138 C   0  0  0  0  0  0  0  0  0  0  0  0
    2.5268    1.3647   -0.0431 C   0  0  2  0  0  0  0  0  0  0  0  0
    2.2917    2.0179    1.2554 N   0  0  0  0  0  0  0  0  0  0  0  0
    0.4638   -1.4467   -0.0084 H   0  0  0  0  0  0  0  0  0  0  0  0
    0.3074    0.0193   -0.9691 H   0  0  0  0  0  0  0  0  0  0  0  0
    0.2893    0.1056    0.8019 H   0  0  0  0  0  0  0  0  0  0  0  0
    2.2811   -1.8823    1.3180 H   0  0  0  0  0  0  0  0  0  0  0  0
    2.4997   -0.3792    2.1370 H   0  0  0  0  0  0  0  0  0  0  0  0
    4.3627   -1.9503    2.2509 H   0  0  0  0  0  0  0  0  0  0  0  0
    4.6345   -1.9047    0.5345 H   0  0  0  0  0  0  0  0  0  0  0  0
    6.1307   -0.5730    2.1278 H   0  0  0  0  0  0  0  0  0  0  0  0
    4.8397    0.5817    2.3336 H   0  0  0  0  0  0  0  0  0  0  0  0
    5.7576   -0.1471   -0.5044 H   0  0  0  0  0  0  0  0  0  0  0  0
    6.8363    0.7424    0.5278 H   0  0  0  0  0  0  0  0  0  0  0  0
    5.8449    2.4360   -0.5590 H   0  0  0  0  0  0  0  0  0  0  0  0
    5.0203    2.4528    0.9683 H   0  0  0  0  0  0  0  0  0  0  0  0
    3.6217    2.9709   -0.8859 H   0  0  0  0  0  0  0  0  0  0  0  0
    4.8820    1.5574   -2.5695 H   0  0  0  0  0  0  0  0  0  0  0  0
    3.1559    1.8172   -2.7841 H   0  0  0  0  0  0  0  0  0  0  0  0
    4.7084   -0.2742   -4.1425 H   0  0  0  0  0  0  0  0  0  0  0  0
    4.3205   -2.6715   -4.4768 H   0  0  0  0  0  0  0  0  0  0  0  0
    3.3737   -4.5332   -3.6039 H   0  0  0  0  0  0  0  0  0  0  0  0
    2.0912   -2.8432   -0.8274 H   0  0  0  0  0  0  0  0  0  0  0  0
    1.7191    1.7673   -0.6750 H   0  0  0  0  0  0  0  0  0  0  0  0
    3.0272    1.7637    1.9117 H   0  0  0  0  0  0  0  0  0  0  0  0
    2.3573    3.0294    1.1456 H   0  0  0  0  0  0  0  0  0  0  0  0
  1 19  1  0  0  0  0
  1 20  1  0  0  0  0
  1 21  1  0  0  0  0
  2  1  1  6  0  0  0
  2  3  1  0  0  0  0
  2 16  1  0  0  0  0
  2 17  1  0  0  0  0
  3  4  1  0  0  0  0
  3 22  1  0  0  0  0
  3 23  1  0  0  0  0
  4  5  1  0  0  0  0
  4 24  1  0  0  0  0
  4 25  1  0  0  0  0
  5  6  1  0  0  0  0
  5 26  1  0  0  0  0
  5 27  1  0  0  0  0
  6  7  1  0  0  0  0
  6 28  1  0  0  0  0
  6 29  1  0  0  0  0
  7  8  1  0  0  0  0
  7 30  1  0  0  0  0
  7 31  1  0  0  0  0
  8  9  1  0  0  0  0
  8 17  1  0  0  0  0
  8 32  1  6  0  0  0
  9 10  1  0  0  0  0
  9 33  1  0  0  0  0
  9 34  1  0  0  0  0
 10 11  1  0  0  0  0
 10 16  2  0  0  0  0
 11 12  2  0  0  0  0
 11 35  1  0  0  0  0
 12 13  1  0  0  0  0
 12 36  1  0  0  0  0
 13 14  1  0  0  0  0
 13 15  2  0  0  0  0
 14 37  1  0  0  0  0
 15 16  1  0  0  0  0
 15 38  1  0  0  0  0
 17 18  1  0  0  0  0
 17 39  1  6  0  0  0
 18 40  1  0  0  0  0
 18 41  1  0  0  0  0
M  END
$$$$
