CHEBI:17210
 OpenBabel04242416013D

 19 19  0  0  1  0  0  0  0  0999 V2000
    1.9620   -1.4544    1.3950 O   0  0  0  0  0  0  0  0  0  0  0  0
    2.8289   -2.1076    0.7254 C   0  0  0  0  0  0  0  0  0  0  0  0
    3.2169   -3.3022    0.8631 O   0  5  0  0  0  0  0  0  0  0  0  0
    3.3951   -1.3021   -0.4965 C   0  0  1  0  0  0  0  0  0  0  0  0
    2.6267   -0.0729   -0.6281 O   0  0  0  0  0  0  0  0  0  0  0  0
    4.8785   -0.9967   -0.3945 C   0  0  0  0  0  0  0  0  0  0  0  0
    5.8071   -2.0479   -0.3104 C   0  0  0  0  0  0  0  0  0  0  0  0
    7.1781   -1.7973   -0.2170 C   0  0  0  0  0  0  0  0  0  0  0  0
    7.6345   -0.4842   -0.2243 C   0  0  0  0  0  0  0  0  0  0  0  0
    8.9658   -0.1991   -0.1242 O   0  0  0  0  0  0  0  0  0  0  0  0
    6.7438    0.5749   -0.3306 C   0  0  0  0  0  0  0  0  0  0  0  0
    5.3724    0.3185   -0.4155 C   0  0  0  0  0  0  0  0  0  0  0  0
    3.2091   -1.8745   -1.4126 H   0  0  0  0  0  0  0  0  0  0  0  0
    2.0257   -0.1412    0.1561 H   0  0  0  0  0  0  0  0  0  0  0  0
    5.4525   -3.0785   -0.2957 H   0  0  0  0  0  0  0  0  0  0  0  0
    7.8578   -2.6377   -0.1333 H   0  0  0  0  0  0  0  0  0  0  0  0
    9.4299   -1.0378    0.0287 H   0  0  0  0  0  0  0  0  0  0  0  0
    7.1062    1.5973   -0.3390 H   0  0  0  0  0  0  0  0  0  0  0  0
    4.6820    1.1553   -0.4944 H   0  0  0  0  0  0  0  0  0  0  0  0
  1  2  2  0  0  0  0
  2  3  1  0  0  0  0
  2  4  1  0  0  0  0
  4  5  1  0  0  0  0
  4  6  1  0  0  0  0
  4 13  1  6  0  0  0
  5 14  1  0  0  0  0
  6  7  1  0  0  0  0
  6 12  2  0  0  0  0
  7  8  2  0  0  0  0
  7 15  1  0  0  0  0
  8  9  1  0  0  0  0
  8 16  1  0  0  0  0
  9 10  1  0  0  0  0
  9 11  2  0  0  0  0
 10 17  1  0  0  0  0
 11 12  1  0  0  0  0
 11 18  1  0  0  0  0
 12 19  1  0  0  0  0
M  CHG  1   3  -1
M  END
$$$$
