CHEBI:18073
 OpenBabel04242423293D

 66 74  0  0  1  0  0  0  0  0999 V2000
    3.3470   -0.7715   -0.6595 C   0  0  0  0  0  0  0  0  0  0  0  0
    2.5088   -0.2975    0.5310 C   0  0  1  0  0  0  0  0  0  0  0  0
    1.9611   -1.4779    1.1607 O   0  0  0  0  0  0  0  0  0  0  0  0
    2.7974   -2.0563    2.1797 C   0  0  2  0  0  0  0  0  0  0  0  0
    2.1368   -3.3509    2.6366 C   0  0  0  0  0  0  0  0  0  0  0  0
    2.9144   -1.0307    3.3130 C   0  0  1  0  0  0  0  0  0  0  0  0
    3.3972   -1.5596    4.5416 O   0  0  0  0  0  0  0  0  0  0  0  0
    4.6813   -1.1546    4.9864 C   0  0  1  0  0  0  0  0  0  0  0  0
    5.6508   -1.9072    4.2715 O   0  0  0  0  0  0  0  0  0  0  0  0
    4.7342   -1.4948    6.4722 C   0  0  0  0  0  0  0  0  0  0  0  0
    5.9229   -0.8947    7.1699 C   0  0  0  0  0  0  0  0  0  0  0  0
    6.4626   -1.4502    8.1266 O   0  0  0  0  0  0  0  0  0  0  0  0
    6.3660    0.4626    6.7715 C   0  0  0  0  0  0  0  0  0  0  0  0
    7.2507    1.1934    7.5863 C   0  0  0  0  0  0  0  0  0  0  0  0
    7.7179    0.6843    8.7706 O   0  0  0  0  0  0  0  0  0  0  0  0
    7.6544    2.4887    7.2341 C   0  0  0  0  0  0  0  0  0  0  0  0
    7.1238    3.0467    6.0551 C   0  0  0  0  0  0  0  0  0  0  0  0
    6.2467    2.3214    5.2297 C   0  0  0  0  0  0  0  0  0  0  0  0
    5.7949    2.8901    4.0269 C   0  0  0  0  0  0  0  0  0  0  0  0
    4.9614    2.1645    3.1580 C   0  0  0  0  0  0  0  0  0  0  0  0
    4.5775    2.6462    1.8940 C   0  0  0  0  0  0  0  0  0  0  0  0
    3.7525    1.8771    1.0541 C   0  0  0  0  0  0  0  0  0  0  0  0
    3.3750    2.3152   -0.1883 O   0  0  0  0  0  0  0  0  0  0  0  0
    3.2888    0.6222    1.4660 C   0  0  0  0  0  0  0  0  0  0  0  0
    3.6163    0.1860    2.7639 C   0  0  0  0  0  0  0  0  0  0  0  0
    4.5060    0.8975    3.5638 C   0  0  0  0  0  0  0  0  0  0  0  0
    4.9752    0.3081    4.7410 C   0  0  0  0  0  0  0  0  0  0  0  0
    5.8541    1.0145    5.5864 C   0  0  0  0  0  0  0  0  0  0  0  0
    5.1586    3.9262    1.4171 C   0  0  0  0  0  0  0  0  0  0  0  0
    4.7562    4.4074    0.3580 O   0  0  0  0  0  0  0  0  0  0  0  0
    6.3247    4.5047    2.1767 C   0  0  0  0  0  0  0  0  0  0  0  0
    6.1747    4.3129    3.6807 C   0  0  1  0  0  0  0  0  0  0  0  0
    5.1726    5.2142    4.1379 O   0  0  0  0  0  0  0  0  0  0  0  0
    7.4346    4.6451    4.2645 O   0  0  0  0  0  0  0  0  0  0  0  0
    7.4577    4.4734    5.6811 C   0  0  2  0  0  0  0  0  0  0  0  0
    8.8262    4.8728    6.2489 C   0  0  1  0  0  0  0  0  0  0  0  0
   10.0227    4.2696    5.5131 C   0  0  0  0  0  0  0  0  0  0  0  0
    8.8549    4.6411    7.6606 O   0  0  0  0  0  0  0  0  0  0  0  0
    8.6215    3.2884    8.0996 C   0  0  2  0  0  0  0  0  0  0  0  0
    9.9818    2.6215    8.3275 C   0  0  0  0  0  0  0  0  0  0  0  0
    2.7741   -1.4790   -1.2693 H   0  0  0  0  0  0  0  0  0  0  0  0
    4.2493   -1.2971   -0.3281 H   0  0  0  0  0  0  0  0  0  0  0  0
    3.6602    0.0545   -1.3039 H   0  0  0  0  0  0  0  0  0  0  0  0
    1.6409    0.2552    0.1524 H   0  0  0  0  0  0  0  0  0  0  0  0
    3.7798   -2.3077    1.7600 H   0  0  0  0  0  0  0  0  0  0  0  0
    1.9947   -4.0250    1.7848 H   0  0  0  0  0  0  0  0  0  0  0  0
    1.1427   -3.1591    3.0549 H   0  0  0  0  0  0  0  0  0  0  0  0
    2.7421   -3.8671    3.3877 H   0  0  0  0  0  0  0  0  0  0  0  0
    1.8964   -0.6883    3.5497 H   0  0  0  0  0  0  0  0  0  0  0  0
    5.5508   -2.8297    4.5600 H   0  0  0  0  0  0  0  0  0  0  0  0
    4.7710   -2.5829    6.6080 H   0  0  0  0  0  0  0  0  0  0  0  0
    3.8354   -1.1353    6.9897 H   0  0  0  0  0  0  0  0  0  0  0  0
    7.4193   -0.2502    8.8576 H   0  0  0  0  0  0  0  0  0  0  0  0
    3.7435    3.2182   -0.3304 H   0  0  0  0  0  0  0  0  0  0  0  0
    6.3911    5.5742    1.9419 H   0  0  0  0  0  0  0  0  0  0  0  0
    7.2390    4.0279    1.8015 H   0  0  0  0  0  0  0  0  0  0  0  0
    4.6649    4.7769    4.8403 H   0  0  0  0  0  0  0  0  0  0  0  0
    6.7001    5.1201    6.1450 H   0  0  0  0  0  0  0  0  0  0  0  0
    8.9247    5.9591    6.1263 H   0  0  0  0  0  0  0  0  0  0  0  0
   10.1055    4.6803    4.5016 H   0  0  0  0  0  0  0  0  0  0  0  0
    9.9447    3.1831    5.4172 H   0  0  0  0  0  0  0  0  0  0  0  0
   10.9521    4.4863    6.0498 H   0  0  0  0  0  0  0  0  0  0  0  0
    8.1467    3.4043    9.0822 H   0  0  0  0  0  0  0  0  0  0  0  0
   10.4329    2.2781    7.3926 H   0  0  0  0  0  0  0  0  0  0  0  0
    9.9078    1.7516    8.9858 H   0  0  0  0  0  0  0  0  0  0  0  0
   10.6834    3.3263    8.7874 H   0  0  0  0  0  0  0  0  0  0  0  0
  1 41  1  0  0  0  0
  1 42  1  0  0  0  0
  1 43  1  0  0  0  0
  2  3  1  0  0  0  0
  2 24  1  0  0  0  0
  2  1  1  0  0  0  0
  2 44  1  6  0  0  0
  3  4  1  0  0  0  0
  4  6  1  0  0  0  0
  4  5  1  0  0  0  0
  4 45  1  6  0  0  0
  5 46  1  0  0  0  0
  5 47  1  0  0  0  0
  5 48  1  0  0  0  0
  6  7  1  0  0  0  0
  6 25  1  0  0  0  0
  6 49  1  1  0  0  0
  7  8  1  0  0  0  0
  8 10  1  0  0  0  0
  8 27  1  0  0  0  0
  8  9  1  1  0  0  0
  9 50  1  0  0  0  0
 10 11  1  0  0  0  0
 10 51  1  0  0  0  0
 10 52  1  0  0  0  0
 11 13  1  0  0  0  0
 11 12  2  0  0  0  0
 13 14  1  0  0  0  0
 13 28  2  0  0  0  0
 14 16  2  0  0  0  0
 14 15  1  0  0  0  0
 15 53  1  0  0  0  0
 16 17  1  0  0  0  0
 16 39  1  0  0  0  0
 17 18  2  0  0  0  0
 17 35  1  0  0  0  0
 18 19  1  0  0  0  0
 18 28  1  0  0  0  0
 19 20  2  0  0  0  0
 19 32  1  0  0  0  0
 20 21  1  0  0  0  0
 20 26  1  0  0  0  0
 21 22  2  0  0  0  0
 21 29  1  0  0  0  0
 22 24  1  0  0  0  0
 22 23  1  0  0  0  0
 23 54  1  0  0  0  0
 24 25  2  0  0  0  0
 25 26  1  0  0  0  0
 26 27  2  0  0  0  0
 27 28  1  0  0  0  0
 29 31  1  0  0  0  0
 29 30  2  0  0  0  0
 31 32  1  0  0  0  0
 31 55  1  0  0  0  0
 31 56  1  0  0  0  0
 32 34  1  0  0  0  0
 32 33  1  1  0  0  0
 33 57  1  0  0  0  0
 34 35  1  0  0  0  0
 35 36  1  0  0  0  0
 35 58  1  1  0  0  0
 36 38  1  0  0  0  0
 36 37  1  0  0  0  0
 36 59  1  1  0  0  0
 37 60  1  0  0  0  0
 37 61  1  0  0  0  0
 37 62  1  0  0  0  0
 38 39  1  0  0  0  0
 39 40  1  0  0  0  0
 39 63  1  1  0  0  0
 40 64  1  0  0  0  0
 40 65  1  0  0  0  0
 40 66  1  0  0  0  0
M  END
$$$$
