CHEBI:16620
 OpenBabel04242414553D

 59 61  0  0  1  0  0  0  0  0999 V2000
    2.3023    1.7697    7.1138 C   0  0  0  0  0  0  0  0  0  0  0  0
    3.6745    2.2108    6.7230 C   0  0  0  0  0  0  0  0  0  0  0  0
    3.9680    3.4142    6.2146 C   0  0  0  0  0  0  0  0  0  0  0  0
    5.2576    3.7964    5.8894 N   0  0  0  0  0  0  0  0  0  0  0  0
    5.5626    5.1436    5.3992 C   0  0  1  0  0  0  0  0  0  0  0  0
    6.1524    5.1649    3.9910 C   0  0  0  0  0  0  0  0  0  0  0  0
    5.7502    6.5344    3.5020 C   0  0  2  0  0  0  0  0  0  0  0  0
    6.6677    7.4853    4.0488 O   0  0  0  0  0  0  0  0  0  0  0  0
    4.3660    6.7086    4.1212 C   0  0  1  0  0  0  0  0  0  0  0  0
    3.2452    6.1591    3.2382 C   0  0  0  0  0  0  0  0  0  0  0  0
    3.1097    6.9290    2.0527 O   0  0  0  0  0  0  0  0  0  0  0  0
    2.0342    6.3894    0.9884 P   0  0  0  0  0  0  0  0  0  0  0  0
    2.2131    4.9723    0.5595 O   0  0  0  0  0  0  0  0  0  0  0  0
    0.6472    6.5813    1.7743 O   0  0  0  0  0  0  0  0  0  0  0  0
    1.9217    7.4844   -0.1483 O   0  0  0  0  0  0  0  0  0  0  0  0
    2.9067    7.5856   -1.3853 P   0  0  0  0  0  0  0  0  0  0  0  0
    4.3552    7.7417   -1.0718 O   0  0  0  0  0  0  0  0  0  0  0  0
    2.5937    6.2520   -2.2131 O   0  0  0  0  0  0  0  0  0  0  0  0
    2.2570    8.7205   -2.3115 O   0  0  0  0  0  0  0  0  0  0  0  0
    2.9413    9.0710   -3.4978 C   0  0  0  0  0  0  0  0  0  0  0  0
    2.7996    8.0538   -4.4944 O   0  0  0  0  0  0  0  0  0  0  0  0
    1.4398    7.8062   -4.8604 C   0  0  2  0  0  0  0  0  0  0  0  0
    1.4589    6.8038   -6.0051 C   0  0  0  0  0  0  0  0  0  0  0  0
    0.6760    9.0764   -5.2490 C   0  0  0  0  0  0  0  0  0  0  0  0
   -0.1626    9.1214   -6.1512 O   0  0  0  0  0  0  0  0  0  0  0  0
    0.9106   10.2811   -4.3500 C   0  0  2  0  0  0  0  0  0  0  0  0
    0.4622   11.4961   -4.9574 O   0  0  0  0  0  0  0  0  0  0  0  0
    2.4040   10.4027   -4.0558 C   0  0  1  0  0  0  0  0  0  0  0  0
    2.6266   11.4846   -3.1430 O   0  0  0  0  0  0  0  0  0  0  0  0
    4.3742    5.9648    5.3585 O   0  0  0  0  0  0  0  0  0  0  0  0
    6.3343    2.9433    6.1008 C   0  0  0  0  0  0  0  0  0  0  0  0
    7.5072    3.2395    5.8829 O   0  0  0  0  0  0  0  0  0  0  0  0
    6.0248    1.6997    6.5814 N   0  0  0  0  0  0  0  0  0  0  0  0
    4.7835    1.2517    6.9267 C   0  0  0  0  0  0  0  0  0  0  0  0
    4.5977    0.1300    7.3821 O   0  0  0  0  0  0  0  0  0  0  0  0
    1.5475    2.5241    6.8679 H   0  0  0  0  0  0  0  0  0  0  0  0
    2.2527    1.5883    8.1927 H   0  0  0  0  0  0  0  0  0  0  0  0
    2.0290    0.8463    6.5930 H   0  0  0  0  0  0  0  0  0  0  0  0
    3.1803    4.1461    6.0614 H   0  0  0  0  0  0  0  0  0  0  0  0
    6.2545    5.6122    6.1108 H   0  0  0  0  0  0  0  0  0  0  0  0
    5.6946    4.3878    3.3678 H   0  0  0  0  0  0  0  0  0  0  0  0
    7.2352    5.0080    3.9979 H   0  0  0  0  0  0  0  0  0  0  0  0
    5.7759    6.6279    2.4129 H   0  0  0  0  0  0  0  0  0  0  0  0
    6.4122    8.3648    3.7174 H   0  0  0  0  0  0  0  0  0  0  0  0
    4.1704    7.7603    4.3581 H   0  0  0  0  0  0  0  0  0  0  0  0
    2.3012    6.1839    3.7944 H   0  0  0  0  0  0  0  0  0  0  0  0
    3.4317    5.1103    2.9808 H   0  0  0  0  0  0  0  0  0  0  0  0
   -0.0455    6.0117    1.3918 H   0  0  0  0  0  0  0  0  0  0  0  0
    3.3745    5.9558   -2.7197 H   0  0  0  0  0  0  0  0  0  0  0  0
    4.0076    9.1881   -3.2761 H   0  0  0  0  0  0  0  0  0  0  0  0
    0.9139    7.3564   -4.0104 H   0  0  0  0  0  0  0  0  0  0  0  0
    1.9509    7.2289   -6.8873 H   0  0  0  0  0  0  0  0  0  0  0  0
    0.4466    6.5014   -6.2908 H   0  0  0  0  0  0  0  0  0  0  0  0
    2.0249    5.9091   -5.7240 H   0  0  0  0  0  0  0  0  0  0  0  0
    0.3295   10.1520   -3.4305 H   0  0  0  0  0  0  0  0  0  0  0  0
   -0.3450   11.2635   -5.4615 H   0  0  0  0  0  0  0  0  0  0  0  0
    2.9377   10.6504   -4.9826 H   0  0  0  0  0  0  0  0  0  0  0  0
    2.1139   12.2375   -3.5025 H   0  0  0  0  0  0  0  0  0  0  0  0
    6.7964    1.0699    6.7335 H   0  0  0  0  0  0  0  0  0  0  0  0
  1  2  1  0  0  0  0
  1 36  1  0  0  0  0
  1 37  1  0  0  0  0
  1 38  1  0  0  0  0
  2  3  2  0  0  0  0
  2 34  1  0  0  0  0
  3  4  1  0  0  0  0
  3 39  1  0  0  0  0
  4  5  1  0  0  0  0
  4 31  1  0  0  0  0
  5  6  1  0  0  0  0
  5 30  1  0  0  0  0
  5 40  1  1  0  0  0
  6  7  1  0  0  0  0
  6 41  1  0  0  0  0
  6 42  1  0  0  0  0
  7  8  1  0  0  0  0
  7  9  1  0  0  0  0
  7 43  1  6  0  0  0
  8 44  1  0  0  0  0
  9 10  1  0  0  0  0
  9 30  1  0  0  0  0
  9 45  1  1  0  0  0
 10 11  1  0  0  0  0
 10 46  1  0  0  0  0
 10 47  1  0  0  0  0
 11 12  1  0  0  0  0
 12 13  2  0  0  0  0
 12 14  1  0  0  0  0
 12 15  1  0  0  0  0
 14 48  1  0  0  0  0
 15 16  1  0  0  0  0
 16 17  2  0  0  0  0
 16 18  1  0  0  0  0
 16 19  1  0  0  0  0
 18 49  1  0  0  0  0
 19 20  1  0  0  0  0
 20 21  1  0  0  0  0
 20 28  1  0  0  0  0
 20 50  1  0  0  0  0
 21 22  1  0  0  0  0
 22 23  1  0  0  0  0
 22 24  1  0  0  0  0
 22 51  1  1  0  0  0
 23 52  1  0  0  0  0
 23 53  1  0  0  0  0
 23 54  1  0  0  0  0
 24 25  2  0  0  0  0
 24 26  1  0  0  0  0
 26 27  1  0  0  0  0
 26 28  1  0  0  0  0
 26 55  1  1  0  0  0
 27 56  1  0  0  0  0
 28 29  1  0  0  0  0
 28 57  1  6  0  0  0
 29 58  1  0  0  0  0
 31 32  2  0  0  0  0
 31 33  1  0  0  0  0
 33 34  1  0  0  0  0
 33 59  1  0  0  0  0
 34 35  2  0  0  0  0
M  END
$$$$
