CHEBI:16774
 OpenBabel04242415123D

 42 41  0  0  0  0  0  0  0  0999 V2000
    8.6720   -0.3875   -5.4360 C   0  0  0  0  0  0  0  0  0  0  0  0
    7.6041   -0.5741   -4.3884 C   0  0  0  0  0  0  0  0  0  0  0  0
    7.4099    0.6167   -3.4915 C   0  0  0  0  0  0  0  0  0  0  0  0
    6.9163   -1.7314   -4.3109 C   0  0  0  0  0  0  0  0  0  0  0  0
    5.7934   -2.0912   -3.3713 C   0  0  0  0  0  0  0  0  0  0  0  0
    6.2195   -3.1895   -2.3857 C   0  0  0  0  0  0  0  0  0  0  0  0
    5.1442   -3.7563   -1.4612 C   0  0  0  0  0  0  0  0  0  0  0  0
    3.8437   -3.0109   -1.3505 C   0  0  0  0  0  0  0  0  0  0  0  0
    5.4310   -4.8984   -0.8005 C   0  0  0  0  0  0  0  0  0  0  0  0
    4.5882   -5.6842    0.1761 C   0  0  0  0  0  0  0  0  0  0  0  0
    5.3686   -6.1738    1.4195 C   0  0  0  0  0  0  0  0  0  0  0  0
    6.1360   -7.4862    1.2901 C   0  0  0  0  0  0  0  0  0  0  0  0
    6.9502   -7.6974    0.0391 C   0  0  0  0  0  0  0  0  0  0  0  0
    6.1604   -8.4445    2.2416 C   0  0  0  0  0  0  0  0  0  0  0  0
    5.5245   -8.4379    3.5957 C   0  0  0  0  0  0  0  0  0  0  0  0
    4.4543   -9.3686    3.6172 O   0  0  0  0  0  0  0  0  0  0  0  0
    9.6368   -0.1758   -4.9634 H   0  0  0  0  0  0  0  0  0  0  0  0
    8.4143    0.4506   -6.0920 H   0  0  0  0  0  0  0  0  0  0  0  0
    8.7988   -1.2748   -6.0652 H   0  0  0  0  0  0  0  0  0  0  0  0
    7.0119    1.4589   -4.0670 H   0  0  0  0  0  0  0  0  0  0  0  0
    8.3688    0.9205   -3.0573 H   0  0  0  0  0  0  0  0  0  0  0  0
    6.7311    0.4283   -2.6574 H   0  0  0  0  0  0  0  0  0  0  0  0
    7.1624   -2.5222   -5.0202 H   0  0  0  0  0  0  0  0  0  0  0  0
    4.9538   -2.4427   -3.9831 H   0  0  0  0  0  0  0  0  0  0  0  0
    5.4315   -1.2171   -2.8234 H   0  0  0  0  0  0  0  0  0  0  0  0
    7.0309   -2.7967   -1.7579 H   0  0  0  0  0  0  0  0  0  0  0  0
    6.6442   -4.0219   -2.9657 H   0  0  0  0  0  0  0  0  0  0  0  0
    3.3435   -2.9723   -2.3238 H   0  0  0  0  0  0  0  0  0  0  0  0
    4.0199   -1.9875   -1.0046 H   0  0  0  0  0  0  0  0  0  0  0  0
    3.1372   -3.4693   -0.6557 H   0  0  0  0  0  0  0  0  0  0  0  0
    6.4119   -5.3257   -0.9933 H   0  0  0  0  0  0  0  0  0  0  0  0
    4.1371   -6.5378   -0.3428 H   0  0  0  0  0  0  0  0  0  0  0  0
    3.7631   -5.0637    0.5406 H   0  0  0  0  0  0  0  0  0  0  0  0
    4.6211   -6.2780    2.2148 H   0  0  0  0  0  0  0  0  0  0  0  0
    6.0643   -5.3933    1.7524 H   0  0  0  0  0  0  0  0  0  0  0  0
    7.6976   -6.9046   -0.0633 H   0  0  0  0  0  0  0  0  0  0  0  0
    6.3080   -7.7129   -0.8466 H   0  0  0  0  0  0  0  0  0  0  0  0
    7.4953   -8.6475    0.0502 H   0  0  0  0  0  0  0  0  0  0  0  0
    6.7542   -9.3384    2.0518 H   0  0  0  0  0  0  0  0  0  0  0  0
    5.1443   -7.4610    3.9000 H   0  0  0  0  0  0  0  0  0  0  0  0
    6.2626   -8.7453    4.3443 H   0  0  0  0  0  0  0  0  0  0  0  0
    4.7170  -10.1356    3.0825 H   0  0  0  0  0  0  0  0  0  0  0  0
  1  2  1  0  0  0  0
  1 17  1  0  0  0  0
  1 18  1  0  0  0  0
  1 19  1  0  0  0  0
  2  3  1  0  0  0  0
  2  4  2  0  0  0  0
  3 20  1  0  0  0  0
  3 21  1  0  0  0  0
  3 22  1  0  0  0  0
  4  5  1  0  0  0  0
  4 23  1  0  0  0  0
  5  6  1  0  0  0  0
  5 24  1  0  0  0  0
  5 25  1  0  0  0  0
  6  7  1  0  0  0  0
  6 26  1  0  0  0  0
  6 27  1  0  0  0  0
  7  8  1  0  0  0  0
  7  9  2  0  0  0  0
  8 28  1  0  0  0  0
  8 29  1  0  0  0  0
  8 30  1  0  0  0  0
  9 10  1  0  0  0  0
  9 31  1  0  0  0  0
 10 11  1  0  0  0  0
 10 32  1  0  0  0  0
 10 33  1  0  0  0  0
 11 12  1  0  0  0  0
 11 34  1  0  0  0  0
 11 35  1  0  0  0  0
 12 13  1  0  0  0  0
 12 14  2  0  0  0  0
 13 36  1  0  0  0  0
 13 37  1  0  0  0  0
 13 38  1  0  0  0  0
 14 15  1  0  0  0  0
 14 39  1  0  0  0  0
 15 16  1  0  0  0  0
 15 40  1  0  0  0  0
 15 41  1  0  0  0  0
 16 42  1  0  0  0  0
M  END
$$$$
