CHEBI:17072
 OpenBabel04242415483D

 21 20  0  0  1  0  0  0  0  0999 V2000
    2.5166   -1.5279    1.8390 N   0  0  0  0  0  0  0  0  0  0  0  0
    2.3151   -0.2625    1.7538 C   0  0  0  0  0  0  0  0  0  0  0  0
    1.1110    0.3232    1.8475 N   0  0  0  0  0  0  0  0  0  0  0  0
    3.3080    0.6395    1.6068 N   0  0  0  0  0  0  0  0  0  0  0  0
    4.7296    0.2361    1.5624 C   0  0  1  0  0  0  0  0  0  0  0  0
    5.5668    1.4580    1.1748 C   0  0  0  0  0  0  0  0  0  0  0  0
    6.9863    1.0445    0.8920 C   0  0  0  0  0  0  0  0  0  0  0  0
    7.2883    0.0296    0.2813 O   0  0  0  0  0  0  0  0  0  0  0  0
    7.9097    1.9348    1.3119 O   0  0  0  0  0  0  0  0  0  0  0  0
    5.1964   -0.2905    2.9306 C   0  0  0  0  0  0  0  0  0  0  0  0
    6.0023    0.2948    3.6452 O   0  0  0  0  0  0  0  0  0  0  0  0
    4.6193   -1.4549    3.3051 O   0  0  0  0  0  0  0  0  0  0  0  0
    1.6120   -1.9977    1.9684 H   0  0  0  0  0  0  0  0  0  0  0  0
    0.3107   -0.2934    1.7777 H   0  0  0  0  0  0  0  0  0  0  0  0
    1.0006    1.1258    1.2371 H   0  0  0  0  0  0  0  0  0  0  0  0
    3.1474    1.4802    2.1535 H   0  0  0  0  0  0  0  0  0  0  0  0
    4.8689   -0.5607    0.8210 H   0  0  0  0  0  0  0  0  0  0  0  0
    5.5382    2.2086    1.9734 H   0  0  0  0  0  0  0  0  0  0  0  0
    5.1758    1.9326    0.2673 H   0  0  0  0  0  0  0  0  0  0  0  0
    7.5601    2.6672    1.8544 H   0  0  0  0  0  0  0  0  0  0  0  0
    3.8890   -1.7095    2.6744 H   0  0  0  0  0  0  0  0  0  0  0  0
  1  2  2  0  0  0  0
  1 13  1  0  0  0  0
  2  3  1  0  0  0  0
  2  4  1  0  0  0  0
  3 14  1  0  0  0  0
  3 15  1  0  0  0  0
  4  5  1  0  0  0  0
  4 16  1  0  0  0  0
  5  6  1  0  0  0  0
  5 10  1  0  0  0  0
  5 17  1  6  0  0  0
  6  7  1  0  0  0  0
  6 18  1  0  0  0  0
  6 19  1  0  0  0  0
  7  8  2  0  0  0  0
  7  9  1  0  0  0  0
  9 20  1  0  0  0  0
 10 11  2  0  0  0  0
 10 12  1  0  0  0  0
 12 21  1  0  0  0  0
M  END
$$$$
