CHEBI:15960
 OpenBabel04242413343D

 32 31  0  0  1  0  0  0  0  0999 V2000
    1.2998   -3.6344   -4.0071 C   0  0  0  0  0  0  0  0  0  0  0  0
    1.5688   -2.7880   -2.8028 C   0  0  0  0  0  0  0  0  0  0  0  0
    1.4517   -3.1576   -1.6451 O   0  0  0  0  0  0  0  0  0  0  0  0
    1.8933   -1.5172   -3.1678 O   0  0  0  0  0  0  0  0  0  0  0  0
    2.3839   -0.6089   -2.1452 C   0  0  2  0  0  0  0  0  0  0  0  0
    3.7204   -1.1421   -1.5956 C   0  0  0  0  0  0  0  0  0  0  0  0
    4.5231   -0.0542   -0.9464 C   0  0  0  0  0  0  0  0  0  0  0  0
    4.1191    1.0649   -0.6780 O   0  0  0  0  0  0  0  0  0  0  0  0
    5.7668   -0.4568   -0.6434 O   0  0  0  0  0  0  0  0  0  0  0  0
    1.3672   -0.2845   -1.0120 C   0  0  0  0  0  0  0  0  0  0  0  0
    0.0324    0.3823   -1.4623 N   0  3  0  0  0  0  0  0  0  0  0  0
    0.2741    1.6386   -2.2863 C   0  0  0  0  0  0  0  0  0  0  0  0
   -0.8536   -0.5802   -2.2379 C   0  0  0  0  0  0  0  0  0  0  0  0
   -0.7217    0.7849   -0.1869 C   0  0  0  0  0  0  0  0  0  0  0  0
    0.3125   -3.3990   -4.4104 H   0  0  0  0  0  0  0  0  0  0  0  0
    1.3367   -4.6891   -3.7207 H   0  0  0  0  0  0  0  0  0  0  0  0
    2.0715   -3.4644   -4.7628 H   0  0  0  0  0  0  0  0  0  0  0  0
    2.6017    0.3189   -2.6863 H   0  0  0  0  0  0  0  0  0  0  0  0
    3.5582   -1.9384   -0.8622 H   0  0  0  0  0  0  0  0  0  0  0  0
    4.3109   -1.5554   -2.4223 H   0  0  0  0  0  0  0  0  0  0  0  0
    6.2210    0.2998   -0.2137 H   0  0  0  0  0  0  0  0  0  0  0  0
    1.8113    0.4203   -0.3020 H   0  0  0  0  0  0  0  0  0  0  0  0
    1.0804   -1.1746   -0.4454 H   0  0  0  0  0  0  0  0  0  0  0  0
    0.7192    1.3551   -3.2432 H   0  0  0  0  0  0  0  0  0  0  0  0
    0.9404    2.2995   -1.7251 H   0  0  0  0  0  0  0  0  0  0  0  0
   -0.6903    2.1259   -2.4619 H   0  0  0  0  0  0  0  0  0  0  0  0
   -0.4231   -0.7457   -3.2269 H   0  0  0  0  0  0  0  0  0  0  0  0
   -1.8425   -0.1252   -2.3525 H   0  0  0  0  0  0  0  0  0  0  0  0
   -0.9329   -1.5140   -1.6748 H   0  0  0  0  0  0  0  0  0  0  0  0
   -0.1163    1.5158    0.3575 H   0  0  0  0  0  0  0  0  0  0  0  0
   -0.8799   -0.1132    0.4176 H   0  0  0  0  0  0  0  0  0  0  0  0
   -1.6809    1.2267   -0.4734 H   0  0  0  0  0  0  0  0  0  0  0  0
  1  2  1  0  0  0  0
  1 15  1  0  0  0  0
  1 16  1  0  0  0  0
  1 17  1  0  0  0  0
  2  3  2  0  0  0  0
  2  4  1  0  0  0  0
  5 10  1  0  0  0  0
  5  6  1  0  0  0  0
  5  4  1  0  0  0  0
  5 18  1  6  0  0  0
  6  7  1  0  0  0  0
  6 19  1  0  0  0  0
  6 20  1  0  0  0  0
  7  8  2  0  0  0  0
  7  9  1  0  0  0  0
  9 21  1  0  0  0  0
 10 11  1  0  0  0  0
 10 22  1  0  0  0  0
 10 23  1  0  0  0  0
 11 12  1  0  0  0  0
 11 13  1  0  0  0  0
 11 14  1  0  0  0  0
 12 24  1  0  0  0  0
 12 25  1  0  0  0  0
 12 26  1  0  0  0  0
 13 27  1  0  0  0  0
 13 28  1  0  0  0  0
 13 29  1  0  0  0  0
 14 30  1  0  0  0  0
 14 31  1  0  0  0  0
 14 32  1  0  0  0  0
M  CHG  1  11   1
M  END
$$$$
