CHEBI:9688
 OpenBabel04242411413D

 45 48  0  0  1  0  0  0  0  0999 V2000
    1.3652   -0.3279   -1.1344 C   0  0  0  0  0  0  0  0  0  0  0  0
    1.0705    0.8200   -0.2187 C   0  0  0  0  0  0  0  0  0  0  0  0
    0.3815    0.7441    0.7875 O   0  0  0  0  0  0  0  0  0  0  0  0
    1.6700    1.9513   -0.6836 O   0  0  0  0  0  0  0  0  0  0  0  0
    1.4885    3.1440    0.1237 C   0  0  2  0  0  0  0  0  0  0  0  0
    0.1177    3.7592   -0.2349 C   0  0  0  0  0  0  0  0  0  0  0  0
    0.4588    5.0374   -1.0162 C   0  0  1  0  0  0  0  0  0  0  0  0
    0.3743    6.1078   -0.0716 O   0  0  0  0  0  0  0  0  0  0  0  0
    1.5878    6.5557    0.5357 C   0  0  2  0  0  0  0  0  0  0  0  0
    2.0383    7.7634   -0.2444 C   0  0  0  0  0  0  0  0  0  0  0  0
    3.3004    7.9955   -0.6411 C   0  0  0  0  0  0  0  0  0  0  0  0
    3.6696    9.1848   -1.4774 C   0  0  0  0  0  0  0  0  0  0  0  0
    4.4134    7.0475   -0.3005 C   0  0  0  0  0  0  0  0  0  0  0  0
    4.0663    6.1321    0.8736 C   0  0  0  0  0  0  0  0  0  0  0  0
    2.6667    5.4370    0.8006 C   0  0  1  0  0  0  0  0  0  0  0  0
    2.4258    4.8910    2.2378 C   0  0  0  0  0  0  0  0  0  0  0  0
    2.5725    4.2374   -0.2750 C   0  0  1  0  0  0  0  0  0  0  0  0
    3.9214    3.5646   -0.5584 C   0  0  0  0  0  0  0  0  0  0  0  0
    1.8480    4.7714   -1.4798 C   0  0  1  0  0  0  0  0  0  0  0  0
    2.1182    4.3554   -2.9133 C   0  0  0  0  0  0  0  0  0  0  0  0
    2.4869    5.6438   -2.3965 O   0  0  0  0  0  0  0  0  0  0  0  0
    0.9110   -0.1475   -2.1117 H   0  0  0  0  0  0  0  0  0  0  0  0
    0.9433   -1.2448   -0.7130 H   0  0  0  0  0  0  0  0  0  0  0  0
    2.4462   -0.4582   -1.2300 H   0  0  0  0  0  0  0  0  0  0  0  0
    1.5614    2.8436    1.1709 H   0  0  0  0  0  0  0  0  0  0  0  0
   -0.4603    3.9803    0.6689 H   0  0  0  0  0  0  0  0  0  0  0  0
   -0.4677    3.0796   -0.8643 H   0  0  0  0  0  0  0  0  0  0  0  0
   -0.2643    5.2236   -1.8157 H   0  0  0  0  0  0  0  0  0  0  0  0
    1.2795    6.9672    1.5064 H   0  0  0  0  0  0  0  0  0  0  0  0
    1.2526    8.4680   -0.5079 H   0  0  0  0  0  0  0  0  0  0  0  0
    4.3955    9.8109   -0.9488 H   0  0  0  0  0  0  0  0  0  0  0  0
    2.8008    9.8078   -1.7142 H   0  0  0  0  0  0  0  0  0  0  0  0
    4.1137    8.8588   -2.4235 H   0  0  0  0  0  0  0  0  0  0  0  0
    5.3072    7.6212   -0.0243 H   0  0  0  0  0  0  0  0  0  0  0  0
    4.6807    6.4674   -1.1886 H   0  0  0  0  0  0  0  0  0  0  0  0
    4.0979    6.7615    1.7761 H   0  0  0  0  0  0  0  0  0  0  0  0
    4.8678    5.3995    1.0217 H   0  0  0  0  0  0  0  0  0  0  0  0
    2.6201    5.6590    2.9965 H   0  0  0  0  0  0  0  0  0  0  0  0
    3.0888    4.0471    2.4576 H   0  0  0  0  0  0  0  0  0  0  0  0
    1.3874    4.5803    2.3913 H   0  0  0  0  0  0  0  0  0  0  0  0
    4.3568    3.1646    0.3634 H   0  0  0  0  0  0  0  0  0  0  0  0
    4.6388    4.2537   -1.0109 H   0  0  0  0  0  0  0  0  0  0  0  0
    3.8408    2.7299   -1.2619 H   0  0  0  0  0  0  0  0  0  0  0  0
    1.2939    4.3240   -3.6154 H   0  0  0  0  0  0  0  0  0  0  0  0
    2.9204    3.6679   -3.1426 H   0  0  0  0  0  0  0  0  0  0  0  0
  1  2  1  0  0  0  0
  1 22  1  0  0  0  0
  1 23  1  0  0  0  0
  1 24  1  0  0  0  0
  2  3  2  0  0  0  0
  2  4  1  0  0  0  0
  4  5  1  0  0  0  0
  5  6  1  0  0  0  0
  5 17  1  0  0  0  0
  5 25  1  1  0  0  0
  6  7  1  0  0  0  0
  6 26  1  0  0  0  0
  6 27  1  0  0  0  0
  7  8  1  0  0  0  0
  7 19  1  0  0  0  0
  7 28  1  6  0  0  0
  8  9  1  0  0  0  0
  9 10  1  0  0  0  0
  9 15  1  0  0  0  0
  9 29  1  1  0  0  0
 10 11  2  0  0  0  0
 10 30  1  0  0  0  0
 11 13  1  0  0  0  0
 11 12  1  0  0  0  0
 12 31  1  0  0  0  0
 12 32  1  0  0  0  0
 12 33  1  0  0  0  0
 13 14  1  0  0  0  0
 13 34  1  0  0  0  0
 13 35  1  0  0  0  0
 14 15  1  0  0  0  0
 14 36  1  0  0  0  0
 14 37  1  0  0  0  0
 15 17  1  0  0  0  0
 15 16  1  1  0  0  0
 16 38  1  0  0  0  0
 16 39  1  0  0  0  0
 16 40  1  0  0  0  0
 17 19  1  0  0  0  0
 17 18  1  6  0  0  0
 18 41  1  0  0  0  0
 18 42  1  0  0  0  0
 18 43  1  0  0  0  0
 19 20  1  0  0  0  0
 19 21  1  6  0  0  0
 20 21  1  0  0  0  0
 20 44  1  0  0  0  0
 20 45  1  0  0  0  0
M  END
$$$$
