CHEBI:15389
 OpenBabel04242411483D

 27 27  0  0  1  0  0  0  0  0999 V2000
    1.1264    0.2980   -0.9279 C   0  0  0  0  0  0  0  0  0  0  0  0
    2.1732   -0.0278   -0.1501 C   0  0  0  0  0  0  0  0  0  0  0  0
    2.6379    0.9177    0.9288 C   0  0  0  0  0  0  0  0  0  0  0  0
    2.9558   -1.3364   -0.2538 C   0  0  2  0  0  0  0  0  0  0  0  0
    4.2732   -1.1228   -1.0307 C   0  0  0  0  0  0  0  0  0  0  0  0
    4.9924   -2.3994   -1.3694 C   0  0  0  0  0  0  0  0  0  0  0  0
    4.4368   -3.6206   -1.2677 C   0  0  0  0  0  0  0  0  0  0  0  0
    5.2006   -4.8724   -1.5947 C   0  0  0  0  0  0  0  0  0  0  0  0
    3.0032   -3.8127   -0.8387 C   0  0  1  0  0  0  0  0  0  0  0  0
    2.9984   -4.3572    0.4778 O   0  0  0  0  0  0  0  0  0  0  0  0
    2.1774   -2.5191   -0.8646 C   0  0  0  0  0  0  0  0  0  0  0  0
    0.6014    1.2413   -0.8042 H   0  0  0  0  0  0  0  0  0  0  0  0
    0.7593   -0.3501   -1.7162 H   0  0  0  0  0  0  0  0  0  0  0  0
    2.0391    1.8343    0.9612 H   0  0  0  0  0  0  0  0  0  0  0  0
    3.6794    1.2099    0.7638 H   0  0  0  0  0  0  0  0  0  0  0  0
    2.5607    0.4386    1.9104 H   0  0  0  0  0  0  0  0  0  0  0  0
    3.2109   -1.6314    0.7747 H   0  0  0  0  0  0  0  0  0  0  0  0
    4.9479   -0.4964   -0.4344 H   0  0  0  0  0  0  0  0  0  0  0  0
    4.0835   -0.5824   -1.9670 H   0  0  0  0  0  0  0  0  0  0  0  0
    6.0201   -2.2939   -1.7107 H   0  0  0  0  0  0  0  0  0  0  0  0
    6.2241   -4.6563   -1.9187 H   0  0  0  0  0  0  0  0  0  0  0  0
    4.7049   -5.4196   -2.4031 H   0  0  0  0  0  0  0  0  0  0  0  0
    5.2600   -5.5245   -0.7176 H   0  0  0  0  0  0  0  0  0  0  0  0
    2.5115   -4.5427   -1.4917 H   0  0  0  0  0  0  0  0  0  0  0  0
    3.6927   -3.8993    0.9812 H   0  0  0  0  0  0  0  0  0  0  0  0
    1.2417   -2.6696   -0.3117 H   0  0  0  0  0  0  0  0  0  0  0  0
    1.9181   -2.2959   -1.9076 H   0  0  0  0  0  0  0  0  0  0  0  0
  1  2  2  0  0  0  0
  1 12  1  0  0  0  0
  1 13  1  0  0  0  0
  2  3  1  0  0  0  0
  2  4  1  0  0  0  0
  3 14  1  0  0  0  0
  3 15  1  0  0  0  0
  3 16  1  0  0  0  0
  4  5  1  0  0  0  0
  4 11  1  0  0  0  0
  4 17  1  1  0  0  0
  5  6  1  0  0  0  0
  5 18  1  0  0  0  0
  5 19  1  0  0  0  0
  6  7  2  0  0  0  0
  6 20  1  0  0  0  0
  7  8  1  0  0  0  0
  7  9  1  0  0  0  0
  8 21  1  0  0  0  0
  8 22  1  0  0  0  0
  8 23  1  0  0  0  0
  9 10  1  0  0  0  0
  9 11  1  0  0  0  0
  9 24  1  6  0  0  0
 10 25  1  0  0  0  0
 11 26  1  0  0  0  0
 11 27  1  0  0  0  0
M  END
$$$$
