CHEBI:16691
 OpenBabel04242415043D

 33 33  0  0  0  0  0  0  0  0999 V2000
    6.2268   -1.0876    3.4733 C   0  0  0  0  0  0  0  0  0  0  0  0
    4.8590   -1.7076    3.2076 C   0  0  0  0  0  0  0  0  0  0  0  0
    3.9459   -1.3951    4.2840 N   0  0  0  0  0  0  0  0  0  0  0  0
    3.0877   -0.3726    3.9320 C   0  0  0  0  0  0  0  0  0  0  0  0
    2.3049    0.1931    4.6707 O   0  0  0  0  0  0  0  0  0  0  0  0
    3.2804   -0.1048    2.5920 N   0  0  0  0  0  0  0  0  0  0  0  0
    4.1650   -1.0716    1.9786 C   0  0  0  0  0  0  0  0  0  0  0  0
    3.3779   -2.1265    1.1847 C   0  0  0  0  0  0  0  0  0  0  0  0
    2.6304   -1.5314   -0.0133 C   0  0  0  0  0  0  0  0  0  0  0  0
    1.8966   -2.6206   -0.7990 C   0  0  0  0  0  0  0  0  0  0  0  0
    1.0984   -2.0311   -1.9621 C   0  0  0  0  0  0  0  0  0  0  0  0
    0.3679   -3.1230   -2.7416 C   0  0  0  0  0  0  0  0  0  0  0  0
   -0.4328   -2.5542   -3.8812 C   0  0  0  0  0  0  0  0  0  0  0  0
   -0.5605   -1.3821   -4.1886 O   0  0  0  0  0  0  0  0  0  0  0  0
   -1.0489   -3.5205   -4.5908 O   0  0  0  0  0  0  0  0  0  0  0  0
    6.6575   -1.4891    4.3972 H   0  0  0  0  0  0  0  0  0  0  0  0
    6.1648    0.0004    3.5875 H   0  0  0  0  0  0  0  0  0  0  0  0
    6.9167   -1.3069    2.6522 H   0  0  0  0  0  0  0  0  0  0  0  0
    4.9559   -2.7953    3.1284 H   0  0  0  0  0  0  0  0  0  0  0  0
    4.0316   -1.6804    5.2501 H   0  0  0  0  0  0  0  0  0  0  0  0
    2.6970    0.5695    2.1152 H   0  0  0  0  0  0  0  0  0  0  0  0
    4.8680   -0.5481    1.3217 H   0  0  0  0  0  0  0  0  0  0  0  0
    2.6577   -2.6342    1.8393 H   0  0  0  0  0  0  0  0  0  0  0  0
    4.0771   -2.8917    0.8244 H   0  0  0  0  0  0  0  0  0  0  0  0
    3.3387   -1.0150   -0.6721 H   0  0  0  0  0  0  0  0  0  0  0  0
    1.9047   -0.7859    0.3320 H   0  0  0  0  0  0  0  0  0  0  0  0
    1.2179   -3.1622   -0.1287 H   0  0  0  0  0  0  0  0  0  0  0  0
    2.6223   -3.3486   -1.1814 H   0  0  0  0  0  0  0  0  0  0  0  0
    1.7708   -1.4833   -2.6342 H   0  0  0  0  0  0  0  0  0  0  0  0
    0.3727   -1.3021   -1.5802 H   0  0  0  0  0  0  0  0  0  0  0  0
   -0.3182   -3.6596   -2.0770 H   0  0  0  0  0  0  0  0  0  0  0  0
    1.0942   -3.8323   -3.1536 H   0  0  0  0  0  0  0  0  0  0  0  0
   -1.5331   -3.0308   -5.2885 H   0  0  0  0  0  0  0  0  0  0  0  0
  1  2  1  0  0  0  0
  1 16  1  0  0  0  0
  1 17  1  0  0  0  0
  1 18  1  0  0  0  0
  2  3  1  0  0  0  0
  2  7  1  0  0  0  0
  2 19  1  0  0  0  0
  3  4  1  0  0  0  0
  3 20  1  0  0  0  0
  4  5  2  0  0  0  0
  4  6  1  0  0  0  0
  6  7  1  0  0  0  0
  6 21  1  0  0  0  0
  7  8  1  0  0  0  0
  7 22  1  0  0  0  0
  8  9  1  0  0  0  0
  8 23  1  0  0  0  0
  8 24  1  0  0  0  0
  9 10  1  0  0  0  0
  9 25  1  0  0  0  0
  9 26  1  0  0  0  0
 10 11  1  0  0  0  0
 10 27  1  0  0  0  0
 10 28  1  0  0  0  0
 11 12  1  0  0  0  0
 11 29  1  0  0  0  0
 11 30  1  0  0  0  0
 12 13  1  0  0  0  0
 12 31  1  0  0  0  0
 12 32  1  0  0  0  0
 13 14  2  0  0  0  0
 13 15  1  0  0  0  0
 15 33  1  0  0  0  0
M  END
$$$$
