CHEBI:4735
 OpenBabel04242410593D

 36 35  0  0  0  0  0  0  0  0999 V2000
    5.5691   -3.7991    3.8588 O   0  0  0  0  0  0  0  0  0  0  0  0
    6.0336   -3.1113    2.9619 C   0  0  0  0  0  0  0  0  0  0  0  0
    7.2808   -2.5867    3.0070 O   0  0  0  0  0  0  0  0  0  0  0  0
    5.2652   -2.7002    1.7109 C   0  0  0  0  0  0  0  0  0  0  0  0
    6.1717   -2.4086    0.5487 N   0  0  0  0  0  0  0  0  0  0  0  0
    5.3989   -1.6891   -0.5039 C   0  0  0  0  0  0  0  0  0  0  0  0
    4.8610   -0.2643   -0.1861 C   0  0  0  0  0  0  0  0  0  0  0  0
    5.8377    0.7813    0.2338 N   0  0  0  0  0  0  0  0  0  0  0  0
    5.0672    2.0561    0.4688 C   0  0  0  0  0  0  0  0  0  0  0  0
    4.1993    1.9816    1.7211 C   0  0  0  0  0  0  0  0  0  0  0  0
    4.3426    1.2426    2.6818 O   0  0  0  0  0  0  0  0  0  0  0  0
    3.1962    2.8837    1.6950 O   0  0  0  0  0  0  0  0  0  0  0  0
    6.8289    1.0123   -0.8620 C   0  0  0  0  0  0  0  0  0  0  0  0
    7.9175    1.9923   -0.4313 C   0  0  0  0  0  0  0  0  0  0  0  0
    8.5309    2.7186   -1.1985 O   0  0  0  0  0  0  0  0  0  0  0  0
    8.1581    1.9451    0.9023 O   0  0  0  0  0  0  0  0  0  0  0  0
    6.6186   -3.7013   -0.0855 C   0  0  0  0  0  0  0  0  0  0  0  0
    7.6752   -4.4326    0.7193 C   0  0  0  0  0  0  0  0  0  0  0  0
    8.8261   -4.0656    0.8900 O   0  0  0  0  0  0  0  0  0  0  0  0
    7.1939   -5.5373    1.3204 O   0  0  0  0  0  0  0  0  0  0  0  0
    7.4605   -2.1195    2.1588 H   0  0  0  0  0  0  0  0  0  0  0  0
    4.7262   -1.7982    2.0151 H   0  0  0  0  0  0  0  0  0  0  0  0
    4.5340   -3.4769    1.4602 H   0  0  0  0  0  0  0  0  0  0  0  0
    4.5369   -2.3016   -0.8046 H   0  0  0  0  0  0  0  0  0  0  0  0
    6.0255   -1.6029   -1.4004 H   0  0  0  0  0  0  0  0  0  0  0  0
    4.0900   -0.3699    0.5843 H   0  0  0  0  0  0  0  0  0  0  0  0
    4.3293    0.0794   -1.0848 H   0  0  0  0  0  0  0  0  0  0  0  0
    4.4347    2.2848   -0.3979 H   0  0  0  0  0  0  0  0  0  0  0  0
    5.7423    2.9028    0.6323 H   0  0  0  0  0  0  0  0  0  0  0  0
    2.7380    2.7634    2.5542 H   0  0  0  0  0  0  0  0  0  0  0  0
    6.3388    1.3926   -1.7651 H   0  0  0  0  0  0  0  0  0  0  0  0
    7.3617    0.0864   -1.1000 H   0  0  0  0  0  0  0  0  0  0  0  0
    7.5250    1.3096    1.3103 H   0  0  0  0  0  0  0  0  0  0  0  0
    7.0929   -3.5028   -1.0558 H   0  0  0  0  0  0  0  0  0  0  0  0
    5.7705   -4.3684   -0.2866 H   0  0  0  0  0  0  0  0  0  0  0  0
    7.9191   -5.8378    1.9106 H   0  0  0  0  0  0  0  0  0  0  0  0
  1  2  2  0  0  0  0
  2  3  1  0  0  0  0
  2  4  1  0  0  0  0
  3 21  1  0  0  0  0
  4  5  1  0  0  0  0
  4 22  1  0  0  0  0
  4 23  1  0  0  0  0
  5  6  1  0  0  0  0
  5 17  1  0  0  0  0
  6  7  1  0  0  0  0
  6 24  1  0  0  0  0
  6 25  1  0  0  0  0
  7  8  1  0  0  0  0
  7 26  1  0  0  0  0
  7 27  1  0  0  0  0
  8  9  1  0  0  0  0
  8 13  1  0  0  0  0
  9 10  1  0  0  0  0
  9 28  1  0  0  0  0
  9 29  1  0  0  0  0
 10 11  2  0  0  0  0
 10 12  1  0  0  0  0
 12 30  1  0  0  0  0
 13 14  1  0  0  0  0
 13 31  1  0  0  0  0
 13 32  1  0  0  0  0
 14 15  2  0  0  0  0
 14 16  1  0  0  0  0
 16 33  1  0  0  0  0
 17 18  1  0  0  0  0
 17 34  1  0  0  0  0
 17 35  1  0  0  0  0
 18 19  2  0  0  0  0
 18 20  1  0  0  0  0
 20 36  1  0  0  0  0
M  END
$$$$
