CHEBI:17625
 OpenBabel04242416583D

 43 44  0  0  1  0  0  0  0  0999 V2000
   -0.1028    1.5794   -7.1971 O   0  0  0  0  0  0  0  0  0  0  0  0
    0.6416    1.0428   -6.3842 C   0  0  0  0  0  0  0  0  0  0  0  0
    1.1873    1.7948   -5.2453 C   0  0  0  0  0  0  0  0  0  0  0  0
    2.0014    1.1698   -4.3924 C   0  0  0  0  0  0  0  0  0  0  0  0
    2.3491   -0.1591   -4.5478 N   0  0  0  0  0  0  0  0  0  0  0  0
    3.2790   -0.8041   -3.6256 C   0  0  1  0  0  0  0  0  0  0  0  0
    4.7356   -0.5593   -3.9879 C   0  0  0  0  0  0  0  0  0  0  0  0
    5.4265   -0.7791   -2.6628 C   0  0  2  0  0  0  0  0  0  0  0  0
    5.6823   -2.1774   -2.5263 O   0  0  0  0  0  0  0  0  0  0  0  0
    4.3940   -0.3101   -1.6328 C   0  0  1  0  0  0  0  0  0  0  0  0
    4.6893    1.0928   -1.1003 C   0  0  0  0  0  0  0  0  0  0  0  0
    3.7643    1.4014   -0.0644 O   0  0  0  0  0  0  0  0  0  0  0  0
    4.0702    2.6656    0.8678 P   0  0  0  0  0  0  0  0  0  0  0  0
    4.9530    3.7119    0.2744 O   0  0  0  0  0  0  0  0  0  0  0  0
    2.5935    3.2321    1.1378 O   0  0  0  0  0  0  0  0  0  0  0  0
    4.4726    2.0853    2.2852 O   0  0  0  0  0  0  0  0  0  0  0  0
    5.9296    1.5998    2.6649 P   0  0  0  0  0  0  0  0  0  0  0  0
    6.6772    0.8365    1.6234 O   0  0  0  0  0  0  0  0  0  0  0  0
    6.6772    2.9609    3.0638 O   0  0  0  0  0  0  0  0  0  0  0  0
    5.7761    0.8892    4.0780 O   0  0  0  0  0  0  0  0  0  0  0  0
    5.2730   -0.6053    4.2063 P   0  0  0  0  0  0  0  0  0  0  0  0
    4.2258   -1.0648    3.2568 O   0  0  0  0  0  0  0  0  0  0  0  0
    6.5956   -1.4957    4.2099 O   0  0  0  0  0  0  0  0  0  0  0  0
    4.8198   -0.7232    5.7340 O   0  0  0  0  0  0  0  0  0  0  0  0
    3.1097   -0.2795   -2.2993 O   0  0  0  0  0  0  0  0  0  0  0  0
    1.8929   -0.9074   -5.6262 C   0  0  0  0  0  0  0  0  0  0  0  0
    2.2228   -2.0686   -5.8544 O   0  0  0  0  0  0  0  0  0  0  0  0
    1.0283   -0.2613   -6.4729 N   0  0  0  0  0  0  0  0  0  0  0  0
    0.9028    2.8330   -5.1438 H   0  0  0  0  0  0  0  0  0  0  0  0
    2.4168    1.6963   -3.5386 H   0  0  0  0  0  0  0  0  0  0  0  0
    3.0686   -1.8798   -3.5761 H   0  0  0  0  0  0  0  0  0  0  0  0
    4.8859    0.4767   -4.3139 H   0  0  0  0  0  0  0  0  0  0  0  0
    5.0721   -1.2274   -4.7870 H   0  0  0  0  0  0  0  0  0  0  0  0
    6.3881   -0.2613   -2.5978 H   0  0  0  0  0  0  0  0  0  0  0  0
    6.1375   -2.3169   -1.6763 H   0  0  0  0  0  0  0  0  0  0  0  0
    4.3026   -1.0147   -0.7982 H   0  0  0  0  0  0  0  0  0  0  0  0
    4.5714    1.8423   -1.8899 H   0  0  0  0  0  0  0  0  0  0  0  0
    5.7085    1.1450   -0.7093 H   0  0  0  0  0  0  0  0  0  0  0  0
    2.3439    3.8879    0.4633 H   0  0  0  0  0  0  0  0  0  0  0  0
    7.6467    2.8647    3.0256 H   0  0  0  0  0  0  0  0  0  0  0  0
    6.3846   -2.4462    4.2403 H   0  0  0  0  0  0  0  0  0  0  0  0
    3.8932   -0.4456    5.8578 H   0  0  0  0  0  0  0  0  0  0  0  0
    0.6814   -0.7934   -7.2551 H   0  0  0  0  0  0  0  0  0  0  0  0
  1  2  2  0  0  0  0
  2  3  1  0  0  0  0
  2 28  1  0  0  0  0
  3  4  2  0  0  0  0
  3 29  1  0  0  0  0
  4  5  1  0  0  0  0
  4 30  1  0  0  0  0
  5  6  1  0  0  0  0
  5 26  1  0  0  0  0
  6  7  1  0  0  0  0
  6 25  1  0  0  0  0
  6 31  1  1  0  0  0
  7  8  1  0  0  0  0
  7 32  1  0  0  0  0
  7 33  1  0  0  0  0
  8  9  1  0  0  0  0
  8 10  1  0  0  0  0
  8 34  1  1  0  0  0
  9 35  1  0  0  0  0
 10 11  1  0  0  0  0
 10 25  1  0  0  0  0
 10 36  1  1  0  0  0
 11 12  1  0  0  0  0
 11 37  1  0  0  0  0
 11 38  1  0  0  0  0
 12 13  1  0  0  0  0
 13 14  2  0  0  0  0
 13 15  1  0  0  0  0
 13 16  1  0  0  0  0
 15 39  1  0  0  0  0
 16 17  1  0  0  0  0
 17 18  2  0  0  0  0
 17 19  1  0  0  0  0
 17 20  1  0  0  0  0
 19 40  1  0  0  0  0
 20 21  1  0  0  0  0
 21 22  2  0  0  0  0
 21 23  1  0  0  0  0
 21 24  1  0  0  0  0
 23 41  1  0  0  0  0
 24 42  1  0  0  0  0
 26 27  2  0  0  0  0
 26 28  1  0  0  0  0
 28 43  1  0  0  0  0
M  END
$$$$
