CHEBI:18164
 OpenBabel04242423403D

 63 62  0  0  1  0  0  0  0  0999 V2000
   15.3231    4.7973   -7.0455 C   0  0  0  0  0  0  0  0  0  0  0  0
   14.4302    5.5203   -6.0336 C   0  0  0  0  0  0  0  0  0  0  0  0
   14.4726    7.0267   -6.2994 C   0  0  0  0  0  0  0  0  0  0  0  0
   12.9710    5.0255   -6.0723 C   0  0  0  0  0  0  0  0  0  0  0  0
   12.8263    3.5439   -5.7138 C   0  0  0  0  0  0  0  0  0  0  0  0
   11.3688    3.0785   -5.8041 C   0  0  0  0  0  0  0  0  0  0  0  0
   11.1633    1.5961   -5.4146 C   0  0  0  0  0  0  0  0  0  0  0  0
    9.6662    1.2703   -5.4680 C   0  0  0  0  0  0  0  0  0  0  0  0
   11.9848    0.6505   -6.3157 C   0  0  0  0  0  0  0  0  0  0  0  0
   11.8548   -0.8327   -5.9571 C   0  0  0  0  0  0  0  0  0  0  0  0
   12.8164   -1.6750   -6.8038 C   0  0  0  0  0  0  0  0  0  0  0  0
   12.6993   -3.1889   -6.5482 C   0  0  0  0  0  0  0  0  0  0  0  0
   13.5880   -3.9477   -7.5396 C   0  0  0  0  0  0  0  0  0  0  0  0
   12.9845   -3.6124   -5.0912 C   0  0  0  0  0  0  0  0  0  0  0  0
   14.3990   -3.3028   -4.5858 C   0  0  0  0  0  0  0  0  0  0  0  0
   14.5994   -3.6612   -3.1095 C   0  0  0  0  0  0  0  0  0  0  0  0
   14.5324   -5.1623   -2.7410 C   0  0  0  0  0  0  0  0  0  0  0  0
   14.6504   -5.2739   -1.2108 C   0  0  0  0  0  0  0  0  0  0  0  0
   15.5981   -6.0781   -3.3860 C   0  0  2  0  0  0  0  0  0  0  0  0
   16.9251   -5.5337   -3.3061 O   0  0  0  0  0  0  0  0  0  0  0  0
   15.3031   -6.4774   -4.8374 C   0  0  0  0  0  0  0  0  0  0  0  0
   14.2103   -6.7712   -5.2907 O   0  0  0  0  0  0  0  0  0  0  0  0
   16.4452   -6.5101   -5.5748 O   0  0  0  0  0  0  0  0  0  0  0  0
   16.3239    5.2415   -7.0707 H   0  0  0  0  0  0  0  0  0  0  0  0
   14.9032    4.8516   -8.0557 H   0  0  0  0  0  0  0  0  0  0  0  0
   15.4500    3.7422   -6.7847 H   0  0  0  0  0  0  0  0  0  0  0  0
   14.8365    5.3426   -5.0299 H   0  0  0  0  0  0  0  0  0  0  0  0
   14.0713    7.2661   -7.2902 H   0  0  0  0  0  0  0  0  0  0  0  0
   15.5004    7.4019   -6.2510 H   0  0  0  0  0  0  0  0  0  0  0  0
   13.8840    7.5705   -5.5534 H   0  0  0  0  0  0  0  0  0  0  0  0
   12.5509    5.2006   -7.0710 H   0  0  0  0  0  0  0  0  0  0  0  0
   12.3716    5.6188   -5.3700 H   0  0  0  0  0  0  0  0  0  0  0  0
   13.2090    3.3690   -4.7014 H   0  0  0  0  0  0  0  0  0  0  0  0
   13.4348    2.9558   -6.4041 H   0  0  0  0  0  0  0  0  0  0  0  0
   10.9998    3.2421   -6.8248 H   0  0  0  0  0  0  0  0  0  0  0  0
   10.7573    3.7076   -5.1443 H   0  0  0  0  0  0  0  0  0  0  0  0
   11.4989    1.4670   -4.3773 H   0  0  0  0  0  0  0  0  0  0  0  0
    9.2930    1.2936   -6.4977 H   0  0  0  0  0  0  0  0  0  0  0  0
    9.0874    1.9929   -4.8827 H   0  0  0  0  0  0  0  0  0  0  0  0
    9.4578    0.2803   -5.0511 H   0  0  0  0  0  0  0  0  0  0  0  0
   13.0464    0.9071   -6.2360 H   0  0  0  0  0  0  0  0  0  0  0  0
   11.6995    0.8000   -7.3646 H   0  0  0  0  0  0  0  0  0  0  0  0
   10.8301   -1.1781   -6.1307 H   0  0  0  0  0  0  0  0  0  0  0  0
   12.0749   -0.9597   -4.8920 H   0  0  0  0  0  0  0  0  0  0  0  0
   13.8474   -1.3409   -6.6366 H   0  0  0  0  0  0  0  0  0  0  0  0
   12.6033   -1.4815   -7.8636 H   0  0  0  0  0  0  0  0  0  0  0  0
   11.6621   -3.4796   -6.7642 H   0  0  0  0  0  0  0  0  0  0  0  0
   14.6418   -3.6698   -7.4378 H   0  0  0  0  0  0  0  0  0  0  0  0
   13.2879   -3.7289   -8.5703 H   0  0  0  0  0  0  0  0  0  0  0  0
   13.5013   -5.0288   -7.3940 H   0  0  0  0  0  0  0  0  0  0  0  0
   12.7908   -4.6864   -5.0089 H   0  0  0  0  0  0  0  0  0  0  0  0
   12.2537   -3.1370   -4.4265 H   0  0  0  0  0  0  0  0  0  0  0  0
   14.5866   -2.2273   -4.6845 H   0  0  0  0  0  0  0  0  0  0  0  0
   15.1543   -3.8024   -5.1981 H   0  0  0  0  0  0  0  0  0  0  0  0
   13.8370   -3.1238   -2.5290 H   0  0  0  0  0  0  0  0  0  0  0  0
   15.5575   -3.2412   -2.7784 H   0  0  0  0  0  0  0  0  0  0  0  0
   13.5374   -5.5402   -3.0061 H   0  0  0  0  0  0  0  0  0  0  0  0
   15.6310   -4.9341   -0.8604 H   0  0  0  0  0  0  0  0  0  0  0  0
   14.5127   -6.3103   -0.8843 H   0  0  0  0  0  0  0  0  0  0  0  0
   13.8844   -4.6691   -0.7135 H   0  0  0  0  0  0  0  0  0  0  0  0
   15.6325   -7.0327   -2.8460 H   0  0  0  0  0  0  0  0  0  0  0  0
   16.8837   -4.5934   -3.5573 H   0  0  0  0  0  0  0  0  0  0  0  0
   17.2027   -6.3080   -4.9775 H   0  0  0  0  0  0  0  0  0  0  0  0
  1  2  1  0  0  0  0
  1 24  1  0  0  0  0
  1 25  1  0  0  0  0
  1 26  1  0  0  0  0
  2  3  1  0  0  0  0
  2  4  1  0  0  0  0
  2 27  1  0  0  0  0
  3 28  1  0  0  0  0
  3 29  1  0  0  0  0
  3 30  1  0  0  0  0
  4  5  1  0  0  0  0
  4 31  1  0  0  0  0
  4 32  1  0  0  0  0
  5  6  1  0  0  0  0
  5 33  1  0  0  0  0
  5 34  1  0  0  0  0
  6  7  1  0  0  0  0
  6 35  1  0  0  0  0
  6 36  1  0  0  0  0
  7  8  1  0  0  0  0
  7  9  1  0  0  0  0
  7 37  1  0  0  0  0
  8 38  1  0  0  0  0
  8 39  1  0  0  0  0
  8 40  1  0  0  0  0
  9 10  1  0  0  0  0
  9 41  1  0  0  0  0
  9 42  1  0  0  0  0
 10 11  1  0  0  0  0
 10 43  1  0  0  0  0
 10 44  1  0  0  0  0
 11 12  1  0  0  0  0
 11 45  1  0  0  0  0
 11 46  1  0  0  0  0
 12 13  1  0  0  0  0
 12 14  1  0  0  0  0
 12 47  1  0  0  0  0
 13 48  1  0  0  0  0
 13 49  1  0  0  0  0
 13 50  1  0  0  0  0
 14 15  1  0  0  0  0
 14 51  1  0  0  0  0
 14 52  1  0  0  0  0
 15 16  1  0  0  0  0
 15 53  1  0  0  0  0
 15 54  1  0  0  0  0
 16 17  1  0  0  0  0
 16 55  1  0  0  0  0
 16 56  1  0  0  0  0
 17 18  1  0  0  0  0
 17 57  1  0  0  0  0
 18 58  1  0  0  0  0
 18 59  1  0  0  0  0
 18 60  1  0  0  0  0
 19 21  1  0  0  0  0
 19 20  1  0  0  0  0
 19 17  1  0  0  0  0
 19 61  1  1  0  0  0
 20 62  1  0  0  0  0
 21 22  2  0  0  0  0
 21 23  1  0  0  0  0
 23 63  1  0  0  0  0
M  END
$$$$
