CHEBI:18104
 OpenBabel04242423323D

 21 20  0  0  1  0  0  0  0  0999 V2000
    0.0814    0.0092   -2.4123 C   0  0  0  0  0  0  0  0  0  0  0  0
    1.1907   -0.9278   -2.8762 C   0  0  1  0  0  0  0  0  0  0  0  0
    0.7366   -2.2761   -2.6884 O   0  0  0  0  0  0  0  0  0  0  0  0
    2.5111   -0.7863   -2.0899 C   0  0  2  0  0  0  0  0  0  0  0  0
    2.2790   -1.1393   -0.7209 O   0  0  0  0  0  0  0  0  0  0  0  0
    3.0944    0.6203   -2.1379 C   0  0  0  0  0  0  0  0  0  0  0  0
    4.4843    0.6593   -1.5617 C   0  0  0  0  0  0  0  0  0  0  0  0
    4.8320    1.3189   -0.5841 O   0  0  0  0  0  0  0  0  0  0  0  0
    5.5738   -0.1240   -2.2880 C   0  0  0  0  0  0  0  0  0  0  0  0
    5.4036   -0.6658   -3.3612 O   0  0  0  0  0  0  0  0  0  0  0  0
    6.7247   -0.0863   -1.5909 O   0  0  0  0  0  0  0  0  0  0  0  0
   -0.8443   -0.1975   -2.9609 H   0  0  0  0  0  0  0  0  0  0  0  0
    0.3436    1.0585   -2.5736 H   0  0  0  0  0  0  0  0  0  0  0  0
   -0.1474   -0.1393   -1.3516 H   0  0  0  0  0  0  0  0  0  0  0  0
    1.3811   -0.7804   -3.9452 H   0  0  0  0  0  0  0  0  0  0  0  0
   -0.0488   -2.3998   -3.2511 H   0  0  0  0  0  0  0  0  0  0  0  0
    3.2173   -1.5312   -2.4706 H   0  0  0  0  0  0  0  0  0  0  0  0
    1.7361   -1.9547   -0.7623 H   0  0  0  0  0  0  0  0  0  0  0  0
    2.4862    1.3131   -1.5447 H   0  0  0  0  0  0  0  0  0  0  0  0
    3.1405    1.0025   -3.1633 H   0  0  0  0  0  0  0  0  0  0  0  0
    6.5857    0.4556   -0.7769 H   0  0  0  0  0  0  0  0  0  0  0  0
  1  2  1  0  0  0  0
  1 12  1  0  0  0  0
  1 13  1  0  0  0  0
  1 14  1  0  0  0  0
  2  3  1  0  0  0  0
  2 15  1  1  0  0  0
  3 16  1  0  0  0  0
  4  6  1  0  0  0  0
  4  5  1  0  0  0  0
  4  2  1  0  0  0  0
  4 17  1  6  0  0  0
  5 18  1  0  0  0  0
  6  7  1  0  0  0  0
  6 19  1  0  0  0  0
  6 20  1  0  0  0  0
  7  8  2  0  0  0  0
  7  9  1  0  0  0  0
  9 10  2  0  0  0  0
  9 11  1  0  0  0  0
 11 21  1  0  0  0  0
M  END
$$$$
