CHEBI:20760
 OpenBabel04252409383D

 83 86  0  0  1  0  0  0  0  0999 V2000
    9.7335   -4.6651   -1.2784 C   0  0  0  0  0  0  0  0  0  0  0  0
   10.6765   -3.9581   -2.2548 C   0  0  0  0  0  0  0  0  0  0  0  0
   12.1143   -4.4423   -2.0241 C   0  0  0  0  0  0  0  0  0  0  0  0
   10.5674   -2.3984   -2.2190 C   0  0  2  0  0  0  0  0  0  0  0  0
   10.9474   -1.8122   -0.8523 C   0  0  0  0  0  0  0  0  0  0  0  0
    9.1663   -1.8879   -2.6882 C   0  0  1  0  0  0  0  0  0  0  0  0
    8.8747   -2.5140   -3.9424 O   0  0  0  0  0  0  0  0  0  0  0  0
    9.0959   -0.3461   -2.8766 C   0  0  2  0  0  0  0  0  0  0  0  0
   10.0659    0.0155   -3.8780 O   0  0  0  0  0  0  0  0  0  0  0  0
    7.7084    0.2565   -3.2817 C   0  0  1  0  0  0  0  0  0  0  0  0
    7.2660   -0.2071   -4.6753 C   0  0  0  0  0  0  0  0  0  0  0  0
    6.6032    0.0521   -2.1967 C   0  0  1  0  0  0  0  0  0  0  0  0
    7.0780    0.5349   -0.8047 C   0  0  0  0  0  0  0  0  0  0  0  0
    5.8640    1.0985   -0.0693 C   0  0  0  0  0  0  0  0  0  0  0  0
    4.6428    0.7447   -0.9277 C   0  0  1  0  0  0  0  0  0  0  0  0
    4.0128   -0.6109   -0.4820 C   0  0  2  0  0  0  0  0  0  0  0  0
    3.2875   -0.4403    0.8721 C   0  0  0  0  0  0  0  0  0  0  0  0
    2.6000   -1.7159    1.3605 C   0  0  2  0  0  0  0  0  0  0  0  0
    3.5599   -2.6883    1.7469 O   0  0  0  0  0  0  0  0  0  0  0  0
    1.6554   -2.2698    0.2855 C   0  0  1  0  0  0  0  0  0  0  0  0
    0.8595   -3.4845    0.7854 C   0  0  0  0  0  0  0  0  0  0  0  0
   -0.2277   -3.8649   -0.2191 C   0  0  2  0  0  0  0  0  0  0  0  0
   -0.8737   -5.0713    0.2047 O   0  0  0  0  0  0  0  0  0  0  0  0
    0.3214   -4.0832   -1.6362 C   0  0  2  0  0  0  0  0  0  0  0  0
    1.0162   -5.3309   -1.6963 O   0  0  0  0  0  0  0  0  0  0  0  0
    1.2349   -2.9439   -2.1048 C   0  0  0  0  0  0  0  0  0  0  0  0
    2.3539   -2.5337   -1.0897 C   0  0  1  0  0  0  0  0  0  0  0  0
    3.4092   -3.6679   -1.0336 C   0  0  0  0  0  0  0  0  0  0  0  0
    3.0320   -1.1815   -1.5442 C   0  0  1  0  0  0  0  0  0  0  0  0
    3.7366   -1.2732   -2.9052 C   0  0  0  0  0  0  0  0  0  0  0  0
    4.2343    0.0952   -3.3508 C   0  0  0  0  0  0  0  0  0  0  0  0
    5.2194    0.7682   -2.3768 C   0  0  2  0  0  0  0  0  0  0  0  0
    5.4007    2.2352   -2.8417 C   0  0  0  0  0  0  0  0  0  0  0  0
    9.8369   -5.7525   -1.3670 H   0  0  0  0  0  0  0  0  0  0  0  0
    8.6875   -4.4229   -1.4863 H   0  0  0  0  0  0  0  0  0  0  0  0
    9.9497   -4.3979   -0.2395 H   0  0  0  0  0  0  0  0  0  0  0  0
   10.4086   -4.2925   -3.2654 H   0  0  0  0  0  0  0  0  0  0  0  0
   12.4433   -4.2820   -0.9931 H   0  0  0  0  0  0  0  0  0  0  0  0
   12.8125   -3.9296   -2.6939 H   0  0  0  0  0  0  0  0  0  0  0  0
   12.1918   -5.5165   -2.2264 H   0  0  0  0  0  0  0  0  0  0  0  0
   11.3084   -2.0367   -2.9458 H   0  0  0  0  0  0  0  0  0  0  0  0
   10.1877   -2.0327   -0.0961 H   0  0  0  0  0  0  0  0  0  0  0  0
   11.0636   -0.7258   -0.9045 H   0  0  0  0  0  0  0  0  0  0  0  0
   11.9063   -2.1989   -0.4967 H   0  0  0  0  0  0  0  0  0  0  0  0
    8.4028   -2.2051   -1.9720 H   0  0  0  0  0  0  0  0  0  0  0  0
    9.4610   -2.0703   -4.5869 H   0  0  0  0  0  0  0  0  0  0  0  0
    9.4204    0.1421   -1.9548 H   0  0  0  0  0  0  0  0  0  0  0  0
   10.0607    0.9863   -3.9469 H   0  0  0  0  0  0  0  0  0  0  0  0
    7.8875    1.3364   -3.3782 H   0  0  0  0  0  0  0  0  0  0  0  0
    6.7876   -1.1906   -4.6405 H   0  0  0  0  0  0  0  0  0  0  0  0
    8.1043   -0.2590   -5.3768 H   0  0  0  0  0  0  0  0  0  0  0  0
    6.5598    0.5017   -5.1152 H   0  0  0  0  0  0  0  0  0  0  0  0
    6.4226   -1.0267   -2.1161 H   0  0  0  0  0  0  0  0  0  0  0  0
    7.8414    1.3177   -0.8743 H   0  0  0  0  0  0  0  0  0  0  0  0
    7.5148   -0.3002   -0.2449 H   0  0  0  0  0  0  0  0  0  0  0  0
    5.9586    2.1889    0.0067 H   0  0  0  0  0  0  0  0  0  0  0  0
    5.8215    0.7247    0.9564 H   0  0  0  0  0  0  0  0  0  0  0  0
    3.8765    1.5236   -0.8177 H   0  0  0  0  0  0  0  0  0  0  0  0
    4.8312   -1.3252   -0.3356 H   0  0  0  0  0  0  0  0  0  0  0  0
    2.5328    0.3516    0.7776 H   0  0  0  0  0  0  0  0  0  0  0  0
    3.9951   -0.1120    1.6400 H   0  0  0  0  0  0  0  0  0  0  0  0
    2.0197   -1.4736    2.2591 H   0  0  0  0  0  0  0  0  0  0  0  0
    4.2078   -2.2599    2.3318 H   0  0  0  0  0  0  0  0  0  0  0  0
    0.9117   -1.4747    0.1131 H   0  0  0  0  0  0  0  0  0  0  0  0
    1.5060   -4.3431    0.9977 H   0  0  0  0  0  0  0  0  0  0  0  0
    0.3801   -3.2473    1.7443 H   0  0  0  0  0  0  0  0  0  0  0  0
   -0.9861   -3.0731   -0.2488 H   0  0  0  0  0  0  0  0  0  0  0  0
   -1.1600   -4.9389    1.1256 H   0  0  0  0  0  0  0  0  0  0  0  0
   -0.5187   -4.1830   -2.3334 H   0  0  0  0  0  0  0  0  0  0  0  0
    0.4845   -5.9371   -1.1410 H   0  0  0  0  0  0  0  0  0  0  0  0
    0.6046   -2.0677   -2.3065 H   0  0  0  0  0  0  0  0  0  0  0  0
    1.6876   -3.2384   -3.0588 H   0  0  0  0  0  0  0  0  0  0  0  0
    3.0469   -4.5581   -0.5150 H   0  0  0  0  0  0  0  0  0  0  0  0
    4.3288   -3.3701   -0.5258 H   0  0  0  0  0  0  0  0  0  0  0  0
    3.6984   -3.9855   -2.0418 H   0  0  0  0  0  0  0  0  0  0  0  0
    2.2210   -0.4449   -1.6562 H   0  0  0  0  0  0  0  0  0  0  0  0
    3.0431   -1.6366   -3.6704 H   0  0  0  0  0  0  0  0  0  0  0  0
    4.5691   -1.9829   -2.8742 H   0  0  0  0  0  0  0  0  0  0  0  0
    3.3556    0.7449   -3.4716 H   0  0  0  0  0  0  0  0  0  0  0  0
    4.6585    0.0029   -4.3521 H   0  0  0  0  0  0  0  0  0  0  0  0
    5.7116    2.2875   -3.8899 H   0  0  0  0  0  0  0  0  0  0  0  0
    6.1490    2.7743   -2.2524 H   0  0  0  0  0  0  0  0  0  0  0  0
    4.4589    2.7901   -2.7586 H   0  0  0  0  0  0  0  0  0  0  0  0
  1  2  1  0  0  0  0
  1 34  1  0  0  0  0
  1 35  1  0  0  0  0
  1 36  1  0  0  0  0
  2  3  1  0  0  0  0
  2 37  1  0  0  0  0
  3 38  1  0  0  0  0
  3 39  1  0  0  0  0
  3 40  1  0  0  0  0
  4  6  1  0  0  0  0
  4  5  1  0  0  0  0
  4  2  1  0  0  0  0
  4 41  1  6  0  0  0
  5 42  1  0  0  0  0
  5 43  1  0  0  0  0
  5 44  1  0  0  0  0
  6  7  1  0  0  0  0
  6 45  1  6  0  0  0
  7 46  1  0  0  0  0
  8  9  1  0  0  0  0
  8  6  1  0  0  0  0
  8 47  1  6  0  0  0
  9 48  1  0  0  0  0
 10 11  1  0  0  0  0
 10  8  1  0  0  0  0
 10 49  1  6  0  0  0
 11 50  1  0  0  0  0
 11 51  1  0  0  0  0
 11 52  1  0  0  0  0
 12 13  1  0  0  0  0
 12 32  1  0  0  0  0
 12 10  1  0  0  0  0
 12 53  1  1  0  0  0
 13 14  1  0  0  0  0
 13 54  1  0  0  0  0
 13 55  1  0  0  0  0
 14 15  1  0  0  0  0
 14 56  1  0  0  0  0
 14 57  1  0  0  0  0
 15 16  1  0  0  0  0
 15 32  1  0  0  0  0
 15 58  1  6  0  0  0
 16 17  1  0  0  0  0
 16 29  1  0  0  0  0
 16 59  1  6  0  0  0
 17 18  1  0  0  0  0
 17 60  1  0  0  0  0
 17 61  1  0  0  0  0
 18 20  1  0  0  0  0
 18 19  1  0  0  0  0
 18 62  1  1  0  0  0
 19 63  1  0  0  0  0
 20 21  1  0  0  0  0
 20 27  1  0  0  0  0
 20 64  1  1  0  0  0
 21 22  1  0  0  0  0
 21 65  1  0  0  0  0
 21 66  1  0  0  0  0
 22 24  1  0  0  0  0
 22 23  1  0  0  0  0
 22 67  1  6  0  0  0
 23 68  1  0  0  0  0
 24 26  1  0  0  0  0
 24 25  1  0  0  0  0
 24 69  1  6  0  0  0
 25 70  1  0  0  0  0
 26 27  1  0  0  0  0
 26 71  1  0  0  0  0
 26 72  1  0  0  0  0
 27 29  1  0  0  0  0
 27 28  1  6  0  0  0
 28 73  1  0  0  0  0
 28 74  1  0  0  0  0
 28 75  1  0  0  0  0
 29 30  1  0  0  0  0
 29 76  1  1  0  0  0
 30 31  1  0  0  0  0
 30 77  1  0  0  0  0
 30 78  1  0  0  0  0
 31 32  1  0  0  0  0
 31 79  1  0  0  0  0
 31 80  1  0  0  0  0
 32 33  1  6  0  0  0
 33 81  1  0  0  0  0
 33 82  1  0  0  0  0
 33 83  1  0  0  0  0
M  END
$$$$
