CHEBI:16514
 OpenBabel04242414403D

 34 36  0  0  0  0  0  0  0  0999 V2000
    2.9693   -1.4528    0.4136 C   0  0  0  0  0  0  0  0  0  0  0  0
    4.0964   -0.6451    0.7189 O   0  0  0  0  0  0  0  0  0  0  0  0
    4.2529    0.5342    0.0418 C   0  0  0  0  0  0  0  0  0  0  0  0
    5.3613    1.2719    0.4898 C   0  0  0  0  0  0  0  0  0  0  0  0
    5.6965    2.5205   -0.0587 C   0  0  0  0  0  0  0  0  0  0  0  0
    6.8617    3.2991    0.4192 C   0  0  0  0  0  0  0  0  0  0  0  0
    7.2499    3.2833    1.7036 C   0  0  0  0  0  0  0  0  0  0  0  0
    8.4095    4.0879    2.1130 C   0  0  0  0  0  0  0  0  0  0  0  0
    8.8142    4.0936    3.2705 O   0  0  0  0  0  0  0  0  0  0  0  0
    9.0633    4.8936    1.0773 C   0  0  0  0  0  0  0  0  0  0  0  0
   10.1627    5.7096    1.3656 C   0  0  0  0  0  0  0  0  0  0  0  0
   10.7095    5.8089    2.6168 O   0  0  0  0  0  0  0  0  0  0  0  0
   10.7530    6.4721    0.3607 C   0  0  0  0  0  0  0  0  0  0  0  0
   10.2352    6.4095   -0.9304 C   0  0  0  0  0  0  0  0  0  0  0  0
   10.7764    7.1410   -1.9461 O   0  0  0  0  0  0  0  0  0  0  0  0
    9.1440    5.5975   -1.2292 C   0  0  0  0  0  0  0  0  0  0  0  0
    8.5568    4.8365   -0.2186 C   0  0  0  0  0  0  0  0  0  0  0  0
    7.4833    4.0551   -0.5662 O   0  0  0  0  0  0  0  0  0  0  0  0
    4.9019    3.0111   -1.1026 C   0  0  0  0  0  0  0  0  0  0  0  0
    3.8005    2.2866   -1.5675 C   0  0  0  0  0  0  0  0  0  0  0  0
    3.4742    1.0540   -0.9955 C   0  0  0  0  0  0  0  0  0  0  0  0
    2.3882    0.3825   -1.4825 O   0  0  0  0  0  0  0  0  0  0  0  0
    2.9923   -2.3165    1.0858 H   0  0  0  0  0  0  0  0  0  0  0  0
    3.0240   -1.8385   -0.6090 H   0  0  0  0  0  0  0  0  0  0  0  0
    2.0320   -0.9207    0.6048 H   0  0  0  0  0  0  0  0  0  0  0  0
    5.9685    0.8369    1.2815 H   0  0  0  0  0  0  0  0  0  0  0  0
    6.7576    2.7178    2.4839 H   0  0  0  0  0  0  0  0  0  0  0  0
   10.2003    5.2220    3.2215 H   0  0  0  0  0  0  0  0  0  0  0  0
   11.6040    7.1012    0.6022 H   0  0  0  0  0  0  0  0  0  0  0  0
   11.5239    7.6563   -1.5976 H   0  0  0  0  0  0  0  0  0  0  0  0
    8.7560    5.5612   -2.2432 H   0  0  0  0  0  0  0  0  0  0  0  0
    5.1275    3.9705   -1.5648 H   0  0  0  0  0  0  0  0  0  0  0  0
    3.2093    2.7035   -2.3779 H   0  0  0  0  0  0  0  0  0  0  0  0
    1.9896    0.8969   -2.2031 H   0  0  0  0  0  0  0  0  0  0  0  0
  1  2  1  0  0  0  0
  1 23  1  0  0  0  0
  1 24  1  0  0  0  0
  1 25  1  0  0  0  0
  2  3  1  0  0  0  0
  3  4  1  0  0  0  0
  3 21  2  0  0  0  0
  4  5  2  0  0  0  0
  4 26  1  0  0  0  0
  5  6  1  0  0  0  0
  5 19  1  0  0  0  0
  6  7  2  0  0  0  0
  6 18  1  0  0  0  0
  7  8  1  0  0  0  0
  7 27  1  0  0  0  0
  8  9  2  0  0  0  0
  8 10  1  0  0  0  0
 10 11  1  0  0  0  0
 10 17  2  0  0  0  0
 11 12  1  0  0  0  0
 11 13  2  0  0  0  0
 12 28  1  0  0  0  0
 13 14  1  0  0  0  0
 13 29  1  0  0  0  0
 14 15  1  0  0  0  0
 14 16  2  0  0  0  0
 15 30  1  0  0  0  0
 16 17  1  0  0  0  0
 16 31  1  0  0  0  0
 17 18  1  0  0  0  0
 19 20  2  0  0  0  0
 19 32  1  0  0  0  0
 20 21  1  0  0  0  0
 20 33  1  0  0  0  0
 21 22  1  0  0  0  0
 22 34  1  0  0  0  0
M  END
$$$$
