CHEBI:16982
 OpenBabel04242415393D

 16 15  0  0  1  0  0  0  0  0999 V2000
    0.9525   -0.0785   -0.0693 C   0  0  0  0  0  0  0  0  0  0  0  0
    2.4637    0.0218    0.1128 C   0  0  1  0  0  0  0  0  0  0  0  0
    3.0555    0.3635   -1.1456 O   0  0  0  0  0  0  0  0  0  0  0  0
    2.8529    1.0705    1.1719 C   0  0  1  0  0  0  0  0  0  0  0  0
    4.3477    1.0543    1.4754 C   0  0  0  0  0  0  0  0  0  0  0  0
    2.4923    2.3780    0.7124 O   0  0  0  0  0  0  0  0  0  0  0  0
    0.7120   -0.8247   -0.8344 H   0  0  0  0  0  0  0  0  0  0  0  0
    0.5259    0.8701   -0.4128 H   0  0  0  0  0  0  0  0  0  0  0  0
    0.4599   -0.3658    0.8645 H   0  0  0  0  0  0  0  0  0  0  0  0
    2.8523   -0.9602    0.4042 H   0  0  0  0  0  0  0  0  0  0  0  0
    2.5323    1.0991   -1.5112 H   0  0  0  0  0  0  0  0  0  0  0  0
    2.3002    0.8827    2.0991 H   0  0  0  0  0  0  0  0  0  0  0  0
    4.9405    1.2902    0.5849 H   0  0  0  0  0  0  0  0  0  0  0  0
    4.6632    0.0786    1.8571 H   0  0  0  0  0  0  0  0  0  0  0  0
    4.5905    1.8167    2.2235 H   0  0  0  0  0  0  0  0  0  0  0  0
    3.1547    2.6336    0.0458 H   0  0  0  0  0  0  0  0  0  0  0  0
  1  2  1  0  0  0  0
  1  7  1  0  0  0  0
  1  8  1  0  0  0  0
  1  9  1  0  0  0  0
  2  3  1  0  0  0  0
  2  4  1  0  0  0  0
  2 10  1  1  0  0  0
  3 11  1  0  0  0  0
  4  5  1  0  0  0  0
  4  6  1  0  0  0  0
  4 12  1  1  0  0  0
  5 13  1  0  0  0  0
  5 14  1  0  0  0  0
  5 15  1  0  0  0  0
  6 16  1  0  0  0  0
M  END
$$$$
