CHEBI:17251
 OpenBabel04242416063D

 39 41  0  0  1  0  0  0  0  0999 V2000
    1.5558    0.4498    0.3582 C   0  0  0  0  0  0  0  0  0  0  0  0
    2.9634    0.0335    0.1071 C   0  0  0  0  0  0  0  0  0  0  0  0
    3.3970   -0.7289   -0.9010 C   0  0  0  0  0  0  0  0  0  0  0  0
    4.8693   -0.9857   -0.8342 C   0  0  2  0  0  0  0  0  0  0  0  0
    5.2231   -2.4719   -0.7661 C   0  0  0  0  0  0  0  0  0  0  0  0
    5.2253   -2.8543    0.7217 C   0  0  0  0  0  0  0  0  0  0  0  0
    3.8395   -3.2714    1.2352 C   0  0  0  0  0  0  0  0  0  0  0  0
    6.1884   -4.0265    0.9704 C   0  0  0  0  0  0  0  0  0  0  0  0
    5.7332   -1.5706    1.4035 C   0  0  0  0  0  0  0  0  0  0  0  0
    5.3188   -0.3664    0.5235 C   0  0  1  0  0  0  0  0  0  0  0  0
    6.4258    0.7120    0.3497 C   0  0  2  0  0  0  0  0  0  0  0  0
    7.2781    0.9698    1.5995 C   0  0  0  0  0  0  0  0  0  0  0  0
    5.6305    1.9703   -0.0119 C   0  0  0  0  0  0  0  0  0  0  0  0
    4.4299    1.9175    0.9226 C   0  0  0  0  0  0  0  0  0  0  0  0
    4.0743    0.4280    1.0392 C   0  0  1  0  0  0  0  0  0  0  0  0
    0.8726    0.0232   -0.3835 H   0  0  0  0  0  0  0  0  0  0  0  0
    1.4577    1.5384    0.3156 H   0  0  0  0  0  0  0  0  0  0  0  0
    1.2305    0.1103    1.3466 H   0  0  0  0  0  0  0  0  0  0  0  0
    2.7663   -1.1256   -1.6861 H   0  0  0  0  0  0  0  0  0  0  0  0
    5.3497   -0.5213   -1.7027 H   0  0  0  0  0  0  0  0  0  0  0  0
    6.2300   -2.5996   -1.1857 H   0  0  0  0  0  0  0  0  0  0  0  0
    4.5478   -3.0987   -1.3596 H   0  0  0  0  0  0  0  0  0  0  0  0
    3.4514   -4.1213    0.6622 H   0  0  0  0  0  0  0  0  0  0  0  0
    3.1001   -2.4720    1.1790 H   0  0  0  0  0  0  0  0  0  0  0  0
    3.8916   -3.5782    2.2864 H   0  0  0  0  0  0  0  0  0  0  0  0
    5.8578   -4.9263    0.4398 H   0  0  0  0  0  0  0  0  0  0  0  0
    6.2507   -4.2654    2.0380 H   0  0  0  0  0  0  0  0  0  0  0  0
    7.2025   -3.7946    0.6256 H   0  0  0  0  0  0  0  0  0  0  0  0
    6.8256   -1.6287    1.4585 H   0  0  0  0  0  0  0  0  0  0  0  0
    5.3720   -1.4788    2.4338 H   0  0  0  0  0  0  0  0  0  0  0  0
    7.1058    0.4516   -0.4702 H   0  0  0  0  0  0  0  0  0  0  0  0
    6.6681    1.0802    2.5015 H   0  0  0  0  0  0  0  0  0  0  0  0
    7.8736    1.8815    1.4796 H   0  0  0  0  0  0  0  0  0  0  0  0
    7.9861    0.1532    1.7703 H   0  0  0  0  0  0  0  0  0  0  0  0
    5.2977    1.9244   -1.0558 H   0  0  0  0  0  0  0  0  0  0  0  0
    6.2045    2.8940    0.1105 H   0  0  0  0  0  0  0  0  0  0  0  0
    3.6114    2.5455    0.5574 H   0  0  0  0  0  0  0  0  0  0  0  0
    4.7127    2.3028    1.9096 H   0  0  0  0  0  0  0  0  0  0  0  0
    3.8139    0.1720    2.0720 H   0  0  0  0  0  0  0  0  0  0  0  0
  1  2  1  0  0  0  0
  1 16  1  0  0  0  0
  1 17  1  0  0  0  0
  1 18  1  0  0  0  0
  2  3  2  0  0  0  0
  2 15  1  0  0  0  0
  3  4  1  0  0  0  0
  3 19  1  0  0  0  0
  4  5  1  0  0  0  0
  4 10  1  0  0  0  0
  4 20  1  6  0  0  0
  5  6  1  0  0  0  0
  5 21  1  0  0  0  0
  5 22  1  0  0  0  0
  6  7  1  0  0  0  0
  6  8  1  0  0  0  0
  6  9  1  0  0  0  0
  7 23  1  0  0  0  0
  7 24  1  0  0  0  0
  7 25  1  0  0  0  0
  8 26  1  0  0  0  0
  8 27  1  0  0  0  0
  8 28  1  0  0  0  0
  9 29  1  0  0  0  0
  9 30  1  0  0  0  0
 10  9  1  1  0  0  0
 10 11  1  0  0  0  0
 10 15  1  0  0  0  0
 11 13  1  0  0  0  0
 11 12  1  0  0  0  0
 11 31  1  6  0  0  0
 12 32  1  0  0  0  0
 12 33  1  0  0  0  0
 12 34  1  0  0  0  0
 13 14  1  0  0  0  0
 13 35  1  0  0  0  0
 13 36  1  0  0  0  0
 14 15  1  0  0  0  0
 14 37  1  0  0  0  0
 14 38  1  0  0  0  0
 15 39  1  1  0  0  0
M  END
$$$$
