CHEBI:3996
 OpenBabel04242410553D

 42 44  0  0  0  0  0  0  0  0999 V2000
    5.2803   -0.6080    2.0848 C   0  0  0  0  0  0  0  0  0  0  0  0
    6.5633   -0.7382    1.3878 N   0  0  0  0  0  0  0  0  0  0  0  0
    7.6459   -0.8368    2.3705 C   0  0  0  0  0  0  0  0  0  0  0  0
    6.5286   -1.9131    0.4934 C   0  0  0  0  0  0  0  0  0  0  0  0
    7.7260   -1.9850   -0.4719 C   0  0  0  0  0  0  0  0  0  0  0  0
    7.5611   -3.1219   -1.4509 C   0  0  0  0  0  0  0  0  0  0  0  0
    8.2772   -4.2651   -1.5384 C   0  0  0  0  0  0  0  0  0  0  0  0
    7.8075   -5.2853   -2.5076 C   0  0  0  0  0  0  0  0  0  0  0  0
    7.8049   -4.9917   -3.8824 C   0  0  0  0  0  0  0  0  0  0  0  0
    7.3716   -5.9379   -4.8105 C   0  0  0  0  0  0  0  0  0  0  0  0
    6.9384   -7.1861   -4.3750 C   0  0  0  0  0  0  0  0  0  0  0  0
    6.9438   -7.4911   -3.0119 C   0  0  0  0  0  0  0  0  0  0  0  0
    7.3904   -6.5558   -2.0634 C   0  0  0  0  0  0  0  0  0  0  0  0
    7.3249   -6.9402   -0.6400 C   0  0  0  0  0  0  0  0  0  0  0  0
    8.1449   -6.5597    0.3546 C   0  0  0  0  0  0  0  0  0  0  0  0
    9.3186   -5.6719    0.2608 C   0  0  0  0  0  0  0  0  0  0  0  0
   10.3961   -5.9228    1.1269 C   0  0  0  0  0  0  0  0  0  0  0  0
   11.5414   -5.1240    1.0994 C   0  0  0  0  0  0  0  0  0  0  0  0
   11.6262   -4.0614    0.2061 C   0  0  0  0  0  0  0  0  0  0  0  0
   10.5595   -3.7892   -0.6498 C   0  0  0  0  0  0  0  0  0  0  0  0
    9.3914   -4.5702   -0.6127 C   0  0  0  0  0  0  0  0  0  0  0  0
    5.2776    0.2816    2.7247 H   0  0  0  0  0  0  0  0  0  0  0  0
    5.0567   -1.4823    2.7070 H   0  0  0  0  0  0  0  0  0  0  0  0
    4.4629   -0.4759    1.3670 H   0  0  0  0  0  0  0  0  0  0  0  0
    7.6258    0.0224    3.0509 H   0  0  0  0  0  0  0  0  0  0  0  0
    8.6267   -0.8114    1.8863 H   0  0  0  0  0  0  0  0  0  0  0  0
    7.5768   -1.7503    2.9723 H   0  0  0  0  0  0  0  0  0  0  0  0
    5.6163   -1.8594   -0.1166 H   0  0  0  0  0  0  0  0  0  0  0  0
    6.4614   -2.8417    1.0768 H   0  0  0  0  0  0  0  0  0  0  0  0
    8.6546   -2.0756    0.0944 H   0  0  0  0  0  0  0  0  0  0  0  0
    7.7982   -1.0516   -1.0439 H   0  0  0  0  0  0  0  0  0  0  0  0
    6.7184   -2.9845   -2.1297 H   0  0  0  0  0  0  0  0  0  0  0  0
    8.1485   -4.0215   -4.2341 H   0  0  0  0  0  0  0  0  0  0  0  0
    7.3744   -5.7002   -5.8709 H   0  0  0  0  0  0  0  0  0  0  0  0
    6.5982   -7.9259   -5.0950 H   0  0  0  0  0  0  0  0  0  0  0  0
    6.6037   -8.4748   -2.6956 H   0  0  0  0  0  0  0  0  0  0  0  0
    6.5182   -7.6277   -0.3918 H   0  0  0  0  0  0  0  0  0  0  0  0
    7.9552   -6.9626    1.3477 H   0  0  0  0  0  0  0  0  0  0  0  0
   10.3589   -6.7583    1.8226 H   0  0  0  0  0  0  0  0  0  0  0  0
   12.3699   -5.3398    1.7690 H   0  0  0  0  0  0  0  0  0  0  0  0
   12.5208   -3.4455    0.1722 H   0  0  0  0  0  0  0  0  0  0  0  0
   10.6383   -2.9604   -1.3499 H   0  0  0  0  0  0  0  0  0  0  0  0
  1  2  1  0  0  0  0
  1 22  1  0  0  0  0
  1 23  1  0  0  0  0
  1 24  1  0  0  0  0
  2  3  1  0  0  0  0
  2  4  1  0  0  0  0
  3 25  1  0  0  0  0
  3 26  1  0  0  0  0
  3 27  1  0  0  0  0
  4  5  1  0  0  0  0
  4 28  1  0  0  0  0
  4 29  1  0  0  0  0
  5  6  1  0  0  0  0
  5 30  1  0  0  0  0
  5 31  1  0  0  0  0
  6  7  2  0  0  0  0
  6 32  1  0  0  0  0
  7  8  1  0  0  0  0
  7 21  1  0  0  0  0
  8  9  1  0  0  0  0
  8 13  2  0  0  0  0
  9 10  2  0  0  0  0
  9 33  1  0  0  0  0
 10 11  1  0  0  0  0
 10 34  1  0  0  0  0
 11 12  2  0  0  0  0
 11 35  1  0  0  0  0
 12 13  1  0  0  0  0
 12 36  1  0  0  0  0
 13 14  1  0  0  0  0
 14 15  2  0  0  0  0
 14 37  1  0  0  0  0
 15 16  1  0  0  0  0
 15 38  1  0  0  0  0
 16 17  1  0  0  0  0
 16 21  2  0  0  0  0
 17 18  2  0  0  0  0
 17 39  1  0  0  0  0
 18 19  1  0  0  0  0
 18 40  1  0  0  0  0
 19 20  2  0  0  0  0
 19 41  1  0  0  0  0
 20 21  1  0  0  0  0
 20 42  1  0  0  0  0
M  END
$$$$
