CHEBI:16028
 OpenBabel04242413393D

 17 16  0  0  1  0  0  0  0  0999 V2000
    5.1560   -3.1857   -0.5666 N   0  0  0  0  0  0  0  0  0  0  0  0
    5.9609   -2.0091   -0.8791 C   0  0  0  0  0  0  0  0  0  0  0  0
    5.9702   -0.9213    0.2033 C   0  0  0  0  0  0  0  0  0  0  0  0
    4.6502   -0.1630    0.3637 C   0  0  2  0  0  0  0  0  0  0  0  0
    4.8843    1.0370    1.2406 N   0  0  0  0  0  0  0  0  0  0  0  0
    3.5831   -1.0841    1.0628 C   0  0  0  0  0  0  0  0  0  0  0  0
    3.5628   -1.0120    2.3281 O   0  0  0  0  0  0  0  0  0  0  0  0
    2.8781   -1.7809    0.2777 O   0  5  0  0  0  0  0  0  0  0  0  0
    4.1592   -2.8838   -0.5428 H   0  0  0  0  0  0  0  0  0  0  0  0
    5.3017   -3.4370    0.4129 H   0  0  0  0  0  0  0  0  0  0  0  0
    5.6265   -1.5883   -1.8338 H   0  0  0  0  0  0  0  0  0  0  0  0
    6.9918   -2.3487   -1.0306 H   0  0  0  0  0  0  0  0  0  0  0  0
    6.7559   -0.2041   -0.0715 H   0  0  0  0  0  0  0  0  0  0  0  0
    6.2799   -1.3630    1.1600 H   0  0  0  0  0  0  0  0  0  0  0  0
    4.2753    0.1875   -0.6038 H   0  0  0  0  0  0  0  0  0  0  0  0
    4.9663    0.6143    2.1806 H   0  0  0  0  0  0  0  0  0  0  0  0
    3.9683    1.4859    1.3241 H   0  0  0  0  0  0  0  0  0  0  0  0
  1  2  1  0  0  0  0
  1  9  1  0  0  0  0
  1 10  1  0  0  0  0
  2  3  1  0  0  0  0
  2 11  1  0  0  0  0
  2 12  1  0  0  0  0
  3 13  1  0  0  0  0
  3 14  1  0  0  0  0
  4  6  1  0  0  0  0
  4  5  1  0  0  0  0
  4  3  1  0  0  0  0
  4 15  1  6  0  0  0
  5 16  1  0  0  0  0
  5 17  1  0  0  0  0
  6  7  2  0  0  0  0
  6  8  1  0  0  0  0
M  CHG  1   8  -1
M  END
$$$$
