CHEBI:18292
 OpenBabel04252409203D

 33 33  0  0  1  0  0  0  0  0999 V2000
    4.1259   -4.3663    0.0149 C   0  0  0  0  0  0  0  0  0  0  0  0
    4.9766   -3.3437   -0.7258 C   0  0  0  0  0  0  0  0  0  0  0  0
    6.3946   -3.8082   -0.8983 C   0  0  0  0  0  0  0  0  0  0  0  0
    7.3811   -3.1116   -1.4855 C   0  0  0  0  0  0  0  0  0  0  0  0
    7.2904   -1.7233   -2.0612 C   0  0  0  0  0  0  0  0  0  0  0  0
    7.3707   -1.6516   -3.5878 C   0  0  1  0  0  0  0  0  0  0  0  0
    8.6127   -2.3074   -4.1598 C   0  0  0  0  0  0  0  0  0  0  0  0
    9.7445   -2.1372   -3.7240 O   0  0  0  0  0  0  0  0  0  0  0  0
    8.2959   -3.1889   -5.3378 C   0  0  0  0  0  0  0  0  0  0  0  0
    6.8862   -2.7362   -5.6935 C   0  0  0  0  0  0  0  0  0  0  0  0
    6.2407   -2.3801   -4.3468 C   0  0  2  0  0  0  0  0  0  0  0  0
    4.9925   -1.5042   -4.5035 C   0  0  0  0  0  0  0  0  0  0  0  0
    3.8682   -2.2244   -5.2138 C   0  0  0  0  0  0  0  0  0  0  0  0
    3.6961   -3.4324   -5.1987 O   0  0  0  0  0  0  0  0  0  0  0  0
    3.0279   -1.3834   -5.8575 O   0  0  0  0  0  0  0  0  0  0  0  0
    4.5077   -4.5385    1.0269 H   0  0  0  0  0  0  0  0  0  0  0  0
    4.1104   -5.3262   -0.5126 H   0  0  0  0  0  0  0  0  0  0  0  0
    3.0943   -4.0098    0.0983 H   0  0  0  0  0  0  0  0  0  0  0  0
    4.9595   -2.4028   -0.1646 H   0  0  0  0  0  0  0  0  0  0  0  0
    4.5278   -3.1642   -1.7089 H   0  0  0  0  0  0  0  0  0  0  0  0
    6.6373   -4.8017   -0.5216 H   0  0  0  0  0  0  0  0  0  0  0  0
    8.3678   -3.5751   -1.5362 H   0  0  0  0  0  0  0  0  0  0  0  0
    8.1177   -1.1420   -1.6337 H   0  0  0  0  0  0  0  0  0  0  0  0
    6.3737   -1.2238   -1.7286 H   0  0  0  0  0  0  0  0  0  0  0  0
    7.4053   -0.5989   -3.8986 H   0  0  0  0  0  0  0  0  0  0  0  0
    8.3132   -4.2337   -5.0150 H   0  0  0  0  0  0  0  0  0  0  0  0
    8.9948   -3.0228   -6.1599 H   0  0  0  0  0  0  0  0  0  0  0  0
    6.3379   -3.5206   -6.2245 H   0  0  0  0  0  0  0  0  0  0  0  0
    6.9298   -1.8560   -6.3472 H   0  0  0  0  0  0  0  0  0  0  0  0
    5.9750   -3.3169   -3.8413 H   0  0  0  0  0  0  0  0  0  0  0  0
    5.2529   -0.6003   -5.0664 H   0  0  0  0  0  0  0  0  0  0  0  0
    4.6141   -1.1965   -3.5227 H   0  0  0  0  0  0  0  0  0  0  0  0
    3.2597   -0.4388   -5.7816 H   0  0  0  0  0  0  0  0  0  0  0  0
  1  2  1  0  0  0  0
  1 16  1  0  0  0  0
  1 17  1  0  0  0  0
  1 18  1  0  0  0  0
  2  3  1  0  0  0  0
  2 19  1  0  0  0  0
  2 20  1  0  0  0  0
  3  4  2  0  0  0  0
  3 21  1  0  0  0  0
  4  5  1  0  0  0  0
  4 22  1  0  0  0  0
  5 23  1  0  0  0  0
  5 24  1  0  0  0  0
  6  7  1  0  0  0  0
  6 11  1  0  0  0  0
  6  5  1  0  0  0  0
  6 25  1  6  0  0  0
  7  8  2  0  0  0  0
  7  9  1  0  0  0  0
  9 10  1  0  0  0  0
  9 26  1  0  0  0  0
  9 27  1  0  0  0  0
 10 11  1  0  0  0  0
 10 28  1  0  0  0  0
 10 29  1  0  0  0  0
 11 12  1  0  0  0  0
 11 30  1  1  0  0  0
 12 13  1  0  0  0  0
 12 31  1  0  0  0  0
 12 32  1  0  0  0  0
 13 14  2  0  0  0  0
 13 15  1  0  0  0  0
 15 33  1  0  0  0  0
M  END
$$$$
