CHEBI:5706
 OpenBabel04242411053D

 33 34  0  0  0  0  0  0  0  0999 V2000
    1.2874    0.2182    0.7209 C   0  0  0  0  0  0  0  0  0  0  0  0
    2.5185    0.1503   -0.0467 N   0  0  0  0  0  0  0  0  0  0  0  0
    3.2010   -1.0463   -0.0500 C   0  0  0  0  0  0  0  0  0  0  0  0
    2.7993   -2.0696    0.5003 O   0  0  0  0  0  0  0  0  0  0  0  0
    4.4080   -1.0645   -0.6783 N   0  0  0  0  0  0  0  0  0  0  0  0
    4.9976   -0.0542   -1.3795 C   0  0  0  0  0  0  0  0  0  0  0  0
    6.0849   -0.2551   -1.9206 O   0  0  0  0  0  0  0  0  0  0  0  0
    4.2039    1.2383   -1.5140 C   0  0  0  0  0  0  0  0  0  0  0  0
    3.5143    1.1540   -2.8940 C   0  0  0  0  0  0  0  0  0  0  0  0
    5.1758    2.4261   -1.3357 C   0  0  0  0  0  0  0  0  0  0  0  0
    5.3958    3.3703   -2.2757 C   0  0  0  0  0  0  0  0  0  0  0  0
    6.3778    4.4994   -2.1370 C   0  0  0  0  0  0  0  0  0  0  0  0
    7.3490    4.3158   -0.9750 C   0  0  0  0  0  0  0  0  0  0  0  0
    6.6144    3.8249    0.2637 C   0  0  0  0  0  0  0  0  0  0  0  0
    5.9167    2.4888   -0.0059 C   0  0  0  0  0  0  0  0  0  0  0  0
    3.0581    1.3480   -0.4999 C   0  0  0  0  0  0  0  0  0  0  0  0
    2.5843    2.4369   -0.1638 O   0  0  0  0  0  0  0  0  0  0  0  0
    0.7645   -0.7430    0.7126 H   0  0  0  0  0  0  0  0  0  0  0  0
    0.6220    0.9830    0.3087 H   0  0  0  0  0  0  0  0  0  0  0  0
    1.5355    0.4808    1.7541 H   0  0  0  0  0  0  0  0  0  0  0  0
    4.9163   -1.9372   -0.6386 H   0  0  0  0  0  0  0  0  0  0  0  0
    4.2451    1.0766   -3.7078 H   0  0  0  0  0  0  0  0  0  0  0  0
    2.8791    2.0276   -3.0814 H   0  0  0  0  0  0  0  0  0  0  0  0
    2.8676    0.2703   -2.9641 H   0  0  0  0  0  0  0  0  0  0  0  0
    4.8613    3.3576   -3.2216 H   0  0  0  0  0  0  0  0  0  0  0  0
    5.8148    5.4314   -2.0075 H   0  0  0  0  0  0  0  0  0  0  0  0
    6.9498    4.5976   -3.0668 H   0  0  0  0  0  0  0  0  0  0  0  0
    7.8589    5.2626   -0.7647 H   0  0  0  0  0  0  0  0  0  0  0  0
    8.1247    3.5905   -1.2522 H   0  0  0  0  0  0  0  0  0  0  0  0
    5.8730    4.5733    0.5712 H   0  0  0  0  0  0  0  0  0  0  0  0
    7.3170    3.7116    1.0971 H   0  0  0  0  0  0  0  0  0  0  0  0
    5.2286    2.2960    0.8248 H   0  0  0  0  0  0  0  0  0  0  0  0
    6.6696    1.6914    0.0128 H   0  0  0  0  0  0  0  0  0  0  0  0
  1  2  1  0  0  0  0
  1 18  1  0  0  0  0
  1 19  1  0  0  0  0
  1 20  1  0  0  0  0
  2  3  1  0  0  0  0
  2 16  1  0  0  0  0
  3  4  2  0  0  0  0
  3  5  1  0  0  0  0
  5  6  1  0  0  0  0
  5 21  1  0  0  0  0
  6  7  2  0  0  0  0
  6  8  1  0  0  0  0
  8  9  1  0  0  0  0
  8 10  1  0  0  0  0
  8 16  1  0  0  0  0
  9 22  1  0  0  0  0
  9 23  1  0  0  0  0
  9 24  1  0  0  0  0
 10 11  2  0  0  0  0
 10 15  1  0  0  0  0
 11 12  1  0  0  0  0
 11 25  1  0  0  0  0
 12 13  1  0  0  0  0
 12 26  1  0  0  0  0
 12 27  1  0  0  0  0
 13 14  1  0  0  0  0
 13 28  1  0  0  0  0
 13 29  1  0  0  0  0
 14 15  1  0  0  0  0
 14 30  1  0  0  0  0
 14 31  1  0  0  0  0
 15 32  1  0  0  0  0
 15 33  1  0  0  0  0
 16 17  2  0  0  0  0
M  END
$$$$
