CHEBI:16132
 OpenBabel04242413523D

 24 23  0  0  1  0  0  0  0  0999 V2000
    2.9482   -5.0622   -2.9913 O   0  0  0  0  0  0  0  0  0  0  0  0
    2.3161   -4.2397   -3.6472 C   0  0  0  0  0  0  0  0  0  0  0  0
    2.8556   -2.9084   -4.0980 C   0  0  0  0  0  0  0  0  0  0  0  0
    4.2710   -2.6341   -3.5939 C   0  0  2  0  0  0  0  0  0  0  0  0
    4.7483   -1.4632   -4.2762 O   0  0  0  0  0  0  0  0  0  0  0  0
    4.3318   -2.3831   -2.0742 C   0  0  2  0  0  0  0  0  0  0  0  0
    3.6190   -1.1663   -1.7853 O   0  0  0  0  0  0  0  0  0  0  0  0
    5.7838   -2.2415   -1.5872 C   0  0  0  0  0  0  0  0  0  0  0  0
    5.8886   -2.0089   -0.1845 O   0  0  0  0  0  0  0  0  0  0  0  0
    5.2873   -3.0591    0.8565 P   0  0  0  0  0  0  0  0  0  0  0  0
    5.9294   -3.1335    2.1960 O   0  0  0  0  0  0  0  0  0  0  0  0
    3.7620   -2.5900    0.9727 O   0  0  0  0  0  0  0  0  0  0  0  0
    5.1637   -4.4559    0.1045 O   0  0  0  0  0  0  0  0  0  0  0  0
    1.2807   -4.4547   -3.9618 H   0  0  0  0  0  0  0  0  0  0  0  0
    2.1607   -2.1247   -3.7775 H   0  0  0  0  0  0  0  0  0  0  0  0
    2.8445   -2.9070   -5.1943 H   0  0  0  0  0  0  0  0  0  0  0  0
    4.9315   -3.4656   -3.8650 H   0  0  0  0  0  0  0  0  0  0  0  0
    4.3406   -0.7072   -3.8050 H   0  0  0  0  0  0  0  0  0  0  0  0
    3.8190   -3.1850   -1.5417 H   0  0  0  0  0  0  0  0  0  0  0  0
    3.6136   -1.1013   -0.8099 H   0  0  0  0  0  0  0  0  0  0  0  0
    6.2560   -1.3779   -2.0677 H   0  0  0  0  0  0  0  0  0  0  0  0
    6.3747   -3.1277   -1.8412 H   0  0  0  0  0  0  0  0  0  0  0  0
    3.6362   -2.1217    1.8211 H   0  0  0  0  0  0  0  0  0  0  0  0
    4.8293   -5.1634    0.6841 H   0  0  0  0  0  0  0  0  0  0  0  0
  1  2  2  0  0  0  0
  2  3  1  0  0  0  0
  2 14  1  0  0  0  0
  3 15  1  0  0  0  0
  3 16  1  0  0  0  0
  4  5  1  0  0  0  0
  4  3  1  0  0  0  0
  4 17  1  1  0  0  0
  5 18  1  0  0  0  0
  6  8  1  0  0  0  0
  6  7  1  0  0  0  0
  6  4  1  0  0  0  0
  6 19  1  1  0  0  0
  7 20  1  0  0  0  0
  8  9  1  0  0  0  0
  8 21  1  0  0  0  0
  8 22  1  0  0  0  0
  9 10  1  0  0  0  0
 10 11  2  0  0  0  0
 10 12  1  0  0  0  0
 10 13  1  0  0  0  0
 12 23  1  0  0  0  0
 13 24  1  0  0  0  0
M  END
$$$$
