CHEBI:15672
 OpenBabel04242413033D

 16 15  0  0  1  0  0  0  0  0999 V2000
    5.6740    1.6051    2.2100 O   0  0  0  0  0  0  0  0  0  0  0  0
    4.8788    0.7784    1.7763 C   0  0  0  0  0  0  0  0  0  0  0  0
    3.5637    1.0388    1.6338 O   0  0  0  0  0  0  0  0  0  0  0  0
    5.3135   -0.6481    1.4374 C   0  0  1  0  0  0  0  0  0  0  0  0
    6.7527   -0.7005    1.3507 O   0  0  0  0  0  0  0  0  0  0  0  0
    4.7201   -1.1125    0.1132 C   0  0  2  0  0  0  0  0  0  0  0  0
    3.2810   -1.0590    0.1991 O   0  0  0  0  0  0  0  0  0  0  0  0
    5.1541   -2.5397   -0.2235 C   0  0  0  0  0  0  0  0  0  0  0  0
    4.3578   -3.3681   -0.6519 O   0  0  0  0  0  0  0  0  0  0  0  0
    6.4700   -2.7987   -0.0852 O   0  0  0  0  0  0  0  0  0  0  0  0
    3.0659    0.2925    1.2140 H   0  0  0  0  0  0  0  0  0  0  0  0
    5.0037   -1.2925    2.2677 H   0  0  0  0  0  0  0  0  0  0  0  0
    7.0767   -0.0038    1.9684 H   0  0  0  0  0  0  0  0  0  0  0  0
    5.0310   -0.4692   -0.7176 H   0  0  0  0  0  0  0  0  0  0  0  0
    2.9568   -1.7585   -0.4153 H   0  0  0  0  0  0  0  0  0  0  0  0
    6.9684   -2.0513    0.3317 H   0  0  0  0  0  0  0  0  0  0  0  0
  1  2  2  0  0  0  0
  2  3  1  0  0  0  0
  2  4  1  0  0  0  0
  3 11  1  0  0  0  0
  4  5  1  0  0  0  0
  4 12  1  6  0  0  0
  5 13  1  0  0  0  0
  6  8  1  0  0  0  0
  6  7  1  0  0  0  0
  6  4  1  0  0  0  0
  6 14  1  6  0  0  0
  7 15  1  0  0  0  0
  8  9  2  0  0  0  0
  8 10  1  0  0  0  0
 10 16  1  0  0  0  0
M  END
$$$$
