CHEBI:10447
 OpenBabel04242411423D

 24 24  0  0  0  0  0  0  0  0999 V2000
    0.9669    0.1764    0.0297 C   0  0  0  0  0  0  0  0  0  0  0  0
    2.4796   -0.0681    0.0001 C   0  0  0  0  0  0  0  0  0  0  0  0
    2.9740   -0.6281    1.3393 C   0  0  0  0  0  0  0  0  0  0  0  0
    2.9049   -0.9246   -1.2037 C   0  0  0  0  0  0  0  0  0  0  0  0
    3.6328   -0.3439   -2.1708 C   0  0  0  0  0  0  0  0  0  0  0  0
    4.1533   -0.8883   -3.3933 C   0  0  0  0  0  0  0  0  0  0  0  0
    4.1776   -2.1514   -3.8227 C   0  0  0  0  0  0  0  0  0  0  0  0
    3.6348   -3.3642   -3.1933 C   0  0  0  0  0  0  0  0  0  0  0  0
    3.8524   -4.4627   -3.7149 O   0  0  0  0  0  0  0  0  0  0  0  0
    2.7666   -3.3420   -1.9847 C   0  0  0  0  0  0  0  0  0  0  0  0
    2.2106   -4.5831   -1.6567 O   0  0  0  0  0  0  0  0  0  0  0  0
    2.4674   -2.3093   -1.1903 C   0  0  0  0  0  0  0  0  0  0  0  0
    0.7095    0.8842    0.8254 H   0  0  0  0  0  0  0  0  0  0  0  0
    0.4037   -0.7444    0.2127 H   0  0  0  0  0  0  0  0  0  0  0  0
    0.6214    0.6029   -0.9185 H   0  0  0  0  0  0  0  0  0  0  0  0
    2.9445    0.9236   -0.0953 H   0  0  0  0  0  0  0  0  0  0  0  0
    2.4647   -1.5582    1.6121 H   0  0  0  0  0  0  0  0  0  0  0  0
    2.7895    0.0924    2.1440 H   0  0  0  0  0  0  0  0  0  0  0  0
    4.0512   -0.8247    1.3095 H   0  0  0  0  0  0  0  0  0  0  0  0
    3.8860    0.7118   -2.0537 H   0  0  0  0  0  0  0  0  0  0  0  0
    4.6212   -0.1441   -4.0394 H   0  0  0  0  0  0  0  0  0  0  0  0
    4.6581   -2.3611   -4.7758 H   0  0  0  0  0  0  0  0  0  0  0  0
    2.5817   -5.2019   -2.3237 H   0  0  0  0  0  0  0  0  0  0  0  0
    1.7928   -2.5586   -0.3706 H   0  0  0  0  0  0  0  0  0  0  0  0
  1  2  1  0  0  0  0
  1 13  1  0  0  0  0
  1 14  1  0  0  0  0
  1 15  1  0  0  0  0
  2  3  1  0  0  0  0
  2  4  1  0  0  0  0
  2 16  1  0  0  0  0
  3 17  1  0  0  0  0
  3 18  1  0  0  0  0
  3 19  1  0  0  0  0
  4  5  2  0  0  0  0
  4 12  1  0  0  0  0
  5  6  1  0  0  0  0
  5 20  1  0  0  0  0
  6  7  2  0  0  0  0
  6 21  1  0  0  0  0
  7  8  1  0  0  0  0
  7 22  1  0  0  0  0
  8  9  2  0  0  0  0
  8 10  1  0  0  0  0
 10 11  1  0  0  0  0
 10 12  2  0  0  0  0
 11 23  1  0  0  0  0
 12 24  1  0  0  0  0
M  END
$$$$
