CHEBI:16329
 OpenBabel04242414133D

122124  0  0  1  0  0  0  0  0999 V2000
    1.0230    3.1772    0.8751 C   0  0  0  0  0  0  0  0  0  0  0  0
    1.2830    2.2124   -0.2498 C   0  0  0  0  0  0  0  0  0  0  0  0
    0.4263    1.4325   -0.6590 O   0  0  0  0  0  0  0  0  0  0  0  0
    2.5210    2.2067   -0.8236 N   0  0  0  0  0  0  0  0  0  0  0  0
    3.7614    2.7591   -0.2539 C   0  0  1  0  0  0  0  0  0  0  0  0
    4.3980    1.7710    0.7539 C   0  0  0  0  0  0  0  0  0  0  0  0
    4.7550    0.5584    0.1115 O   0  0  0  0  0  0  0  0  0  0  0  0
    5.2037   -0.6531    1.0559 P   0  0  0  0  0  0  0  0  0  0  0  0
    5.9786   -0.3391    2.2897 O   0  0  0  0  0  0  0  0  0  0  0  0
    3.8106   -1.3848    1.3530 O   0  0  0  0  0  0  0  0  0  0  0  0
    5.9022   -1.6987    0.0846 O   0  0  0  0  0  0  0  0  0  0  0  0
    7.4869   -1.8135    0.0258 P   0  0  0  0  0  0  0  0  0  0  0  0
    8.2154   -0.5752   -0.3792 O   0  0  0  0  0  0  0  0  0  0  0  0
    7.7235   -2.9842   -1.0424 O   0  0  0  0  0  0  0  0  0  0  0  0
    7.9627   -2.4648    1.4095 O   0  0  0  0  0  0  0  0  0  0  0  0
    7.3306   -3.6536    1.8580 C   0  0  0  0  0  0  0  0  0  0  0  0
    7.8551   -4.0752    3.2324 C   0  0  1  0  0  0  0  0  0  0  0  0
    9.2653   -4.3407    3.1024 O   0  0  0  0  0  0  0  0  0  0  0  0
    9.9908   -3.4092    3.9306 C   0  0  1  0  0  0  0  0  0  0  0  0
   11.2174   -3.0488    3.2174 N   0  0  0  0  0  0  0  0  0  0  0  0
   11.2465   -2.0420    2.2699 C   0  0  0  0  0  0  0  0  0  0  0  0
   12.3348   -1.7716    1.5463 C   0  0  0  0  0  0  0  0  0  0  0  0
   13.5334   -2.5960    1.7344 C   0  0  0  0  0  0  0  0  0  0  0  0
   14.5422   -2.4064    1.0612 O   0  0  0  0  0  0  0  0  0  0  0  0
   13.4341   -3.5754    2.6740 N   0  0  0  0  0  0  0  0  0  0  0  0
   12.3232   -3.8721    3.4237 C   0  0  0  0  0  0  0  0  0  0  0  0
   12.3615   -4.8185    4.2065 O   0  0  0  0  0  0  0  0  0  0  0  0
    9.0129   -2.2804    4.3122 C   0  0  2  0  0  0  0  0  0  0  0  0
    9.3006   -1.6862    5.5789 O   0  0  0  0  0  0  0  0  0  0  0  0
    7.6893   -3.0276    4.3346 C   0  0  2  0  0  0  0  0  0  0  0  0
    7.5741   -3.6627    5.6243 O   0  0  0  0  0  0  0  0  0  0  0  0
    5.5258    2.3951    1.3534 O   0  0  0  0  0  0  0  0  0  0  0  0
    6.5847    2.6016    0.4136 C   0  0  2  0  0  0  0  0  0  0  0  0
    7.7715    3.1871    1.1876 C   0  0  0  0  0  0  0  0  0  0  0  0
    7.3793    4.3803    1.8622 O   0  0  0  0  0  0  0  0  0  0  0  0
    6.1472    3.5099   -0.7434 C   0  0  1  0  0  0  0  0  0  0  0  0
    7.1327    3.4072   -1.7854 O   0  0  0  0  0  0  0  0  0  0  0  0
    4.7809    3.1377   -1.3565 C   0  0  2  0  0  0  0  0  0  0  0  0
    4.2126    4.2405   -2.1083 O   0  0  0  0  0  0  0  0  0  0  0  0
    4.9894    4.7303   -3.2055 C   0  0  0  0  0  0  0  0  0  0  0  0
    4.0085    5.2710   -4.2430 C   0  0  0  0  0  0  0  0  0  0  0  0
    5.9512    5.8927   -2.8181 C   0  0  0  0  0  0  0  0  0  0  0  0
    5.5969    6.8624   -2.1528 O   0  0  0  0  0  0  0  0  0  0  0  0
    7.2588    5.7439   -3.2509 N   0  0  0  0  0  0  0  0  0  0  0  0
    8.3316    6.6514   -2.8098 C   0  0  1  0  0  0  0  0  0  0  0  0
    8.7832    6.3739   -1.3770 C   0  0  0  0  0  0  0  0  0  0  0  0
    9.5468    6.5204   -3.7493 C   0  0  0  0  0  0  0  0  0  0  0  0
   10.6962    6.8472   -3.4604 O   0  0  0  0  0  0  0  0  0  0  0  0
    9.2360    6.1423   -5.0333 N   0  0  0  0  0  0  0  0  0  0  0  0
   10.2614    5.9268   -6.0551 C   0  0  0  0  0  0  0  0  0  0  0  0
    9.7895    4.9196   -7.1122 C   0  0  0  0  0  0  0  0  0  0  0  0
    8.4860    5.3016   -7.8133 C   0  0  0  0  0  0  0  0  0  0  0  0
    8.0340    4.1952   -8.7359 C   0  0  0  0  0  0  0  0  0  0  0  0
    7.1630    3.3943   -8.4133 O   0  0  0  0  0  0  0  0  0  0  0  0
    8.6862    4.1702   -9.9395 N   0  0  0  0  0  0  0  0  0  0  0  0
    8.4238    3.1493  -10.9546 C   0  0  1  0  0  0  0  0  0  0  0  0
    7.0887    3.4090  -11.6765 C   0  0  0  0  0  0  0  0  0  0  0  0
    6.8395    4.8346  -12.1898 C   0  0  0  0  0  0  0  0  0  0  0  0
    7.7415    5.2594  -13.3471 C   0  0  0  0  0  0  0  0  0  0  0  0
    7.3856    6.6649  -13.8359 C   0  0  0  0  0  0  0  0  0  0  0  0
    8.1856    7.0347  -14.9956 N   0  0  0  0  0  0  0  0  0  0  0  0
    9.6990    3.0146  -11.8086 C   0  0  0  0  0  0  0  0  0  0  0  0
   10.8164    3.2352  -11.3505 O   0  0  0  0  0  0  0  0  0  0  0  0
    9.5482    2.5970  -13.0805 O   0  0  0  0  0  0  0  0  0  0  0  0
   10.7647    7.2472   -6.6623 C   0  0  0  0  0  0  0  0  0  0  0  0
   10.7804    7.4941   -7.8626 O   0  0  0  0  0  0  0  0  0  0  0  0
   11.2598    8.1118   -5.7450 O   0  0  0  0  0  0  0  0  0  0  0  0
    1.2620    4.1966    0.5603 H   0  0  0  0  0  0  0  0  0  0  0  0
    1.6130    2.9038    1.7531 H   0  0  0  0  0  0  0  0  0  0  0  0
   -0.0371    3.1451    1.1440 H   0  0  0  0  0  0  0  0  0  0  0  0
    2.6046    1.5292   -1.5724 H   0  0  0  0  0  0  0  0  0  0  0  0
    3.5006    3.6794    0.2826 H   0  0  0  0  0  0  0  0  0  0  0  0
    3.6774    1.5466    1.5482 H   0  0  0  0  0  0  0  0  0  0  0  0
    3.3504   -1.6776    0.5457 H   0  0  0  0  0  0  0  0  0  0  0  0
    8.4773   -2.7694   -1.6255 H   0  0  0  0  0  0  0  0  0  0  0  0
    7.5408   -4.4455    1.1316 H   0  0  0  0  0  0  0  0  0  0  0  0
    6.2489   -3.4971    1.9085 H   0  0  0  0  0  0  0  0  0  0  0  0
    7.3730   -5.0172    3.5174 H   0  0  0  0  0  0  0  0  0  0  0  0
   10.2664   -3.9472    4.8467 H   0  0  0  0  0  0  0  0  0  0  0  0
   10.3510   -1.4551    2.1088 H   0  0  0  0  0  0  0  0  0  0  0  0
   12.3738   -0.9827    0.8076 H   0  0  0  0  0  0  0  0  0  0  0  0
   14.2335   -4.1741    2.8059 H   0  0  0  0  0  0  0  0  0  0  0  0
    8.9598   -1.4785    3.5754 H   0  0  0  0  0  0  0  0  0  0  0  0
    8.9133   -2.2969    6.2412 H   0  0  0  0  0  0  0  0  0  0  0  0
    6.8195   -2.3757    4.2152 H   0  0  0  0  0  0  0  0  0  0  0  0
    6.7114   -4.1148    5.6553 H   0  0  0  0  0  0  0  0  0  0  0  0
    6.9196    1.6389    0.0142 H   0  0  0  0  0  0  0  0  0  0  0  0
    8.6078    3.4262    0.5250 H   0  0  0  0  0  0  0  0  0  0  0  0
    8.1228    2.4799    1.9460 H   0  0  0  0  0  0  0  0  0  0  0  0
    6.6861    4.1059    2.4946 H   0  0  0  0  0  0  0  0  0  0  0  0
    6.1001    4.5536   -0.4116 H   0  0  0  0  0  0  0  0  0  0  0  0
    7.8337    4.0342   -1.5415 H   0  0  0  0  0  0  0  0  0  0  0  0
    4.8947    2.2992   -2.0566 H   0  0  0  0  0  0  0  0  0  0  0  0
    5.5432    3.9085   -3.6730 H   0  0  0  0  0  0  0  0  0  0  0  0
    3.3471    6.0270   -3.8043 H   0  0  0  0  0  0  0  0  0  0  0  0
    3.3641    4.4662   -4.6136 H   0  0  0  0  0  0  0  0  0  0  0  0
    4.5295    5.7216   -5.0939 H   0  0  0  0  0  0  0  0  0  0  0  0
    7.5253    4.8379   -3.6266 H   0  0  0  0  0  0  0  0  0  0  0  0
    7.9572    7.6783   -2.8833 H   0  0  0  0  0  0  0  0  0  0  0  0
    9.2945    5.4070   -1.3027 H   0  0  0  0  0  0  0  0  0  0  0  0
    7.9419    6.3679   -0.6779 H   0  0  0  0  0  0  0  0  0  0  0  0
    9.5005    7.1297   -1.0398 H   0  0  0  0  0  0  0  0  0  0  0  0
    8.2839    6.3456   -5.3216 H   0  0  0  0  0  0  0  0  0  0  0  0
   11.1367    5.4814   -5.5620 H   0  0  0  0  0  0  0  0  0  0  0  0
    9.6526    3.9434   -6.6276 H   0  0  0  0  0  0  0  0  0  0  0  0
   10.5812    4.7776   -7.8592 H   0  0  0  0  0  0  0  0  0  0  0  0
    8.5944    6.2252   -8.3913 H   0  0  0  0  0  0  0  0  0  0  0  0
    7.6743    5.4676   -7.0977 H   0  0  0  0  0  0  0  0  0  0  0  0
    9.5280    4.7314  -10.0542 H   0  0  0  0  0  0  0  0  0  0  0  0
    8.3300    2.1868  -10.4337 H   0  0  0  0  0  0  0  0  0  0  0  0
    6.2820    3.1958  -10.9614 H   0  0  0  0  0  0  0  0  0  0  0  0
    6.9348    2.6927  -12.4902 H   0  0  0  0  0  0  0  0  0  0  0  0
    6.9254    5.5529  -11.3662 H   0  0  0  0  0  0  0  0  0  0  0  0
    5.7955    4.8857  -12.5264 H   0  0  0  0  0  0  0  0  0  0  0  0
    7.6403    4.5420  -14.1703 H   0  0  0  0  0  0  0  0  0  0  0  0
    8.7886    5.2531  -13.0267 H   0  0  0  0  0  0  0  0  0  0  0  0
    7.5623    7.3916  -13.0355 H   0  0  0  0  0  0  0  0  0  0  0  0
    6.3248    6.7249  -14.1020 H   0  0  0  0  0  0  0  0  0  0  0  0
    9.1615    6.7762  -14.8495 H   0  0  0  0  0  0  0  0  0  0  0  0
    7.8740    6.5187  -15.8167 H   0  0  0  0  0  0  0  0  0  0  0  0
    8.6398    2.4443  -13.3917 H   0  0  0  0  0  0  0  0  0  0  0  0
   11.2666    7.7444   -4.8262 H   0  0  0  0  0  0  0  0  0  0  0  0
  1  2  1  0  0  0  0
  1 68  1  0  0  0  0
  1 69  1  0  0  0  0
  1 70  1  0  0  0  0
  2  3  2  0  0  0  0
  2  4  1  0  0  0  0
  4  5  1  0  0  0  0
  4 71  1  0  0  0  0
  5  6  1  0  0  0  0
  5 38  1  0  0  0  0
  5 72  1  1  0  0  0
  6  7  1  0  0  0  0
  6 32  1  0  0  0  0
  6 73  1  0  0  0  0
  7  8  1  0  0  0  0
  8  9  2  0  0  0  0
  8 10  1  0  0  0  0
  8 11  1  0  0  0  0
 10 74  1  0  0  0  0
 11 12  1  0  0  0  0
 12 13  2  0  0  0  0
 12 14  1  0  0  0  0
 12 15  1  0  0  0  0
 14 75  1  0  0  0  0
 15 16  1  0  0  0  0
 16 17  1  0  0  0  0
 16 76  1  0  0  0  0
 16 77  1  0  0  0  0
 17 18  1  0  0  0  0
 17 30  1  0  0  0  0
 17 78  1  1  0  0  0
 18 19  1  0  0  0  0
 19 20  1  0  0  0  0
 19 28  1  0  0  0  0
 19 79  1  1  0  0  0
 20 21  1  0  0  0  0
 20 26  1  0  0  0  0
 21 22  2  0  0  0  0
 21 80  1  0  0  0  0
 22 23  1  0  0  0  0
 22 81  1  0  0  0  0
 23 24  2  0  0  0  0
 23 25  1  0  0  0  0
 25 26  1  0  0  0  0
 25 82  1  0  0  0  0
 26 27  2  0  0  0  0
 28 29  1  0  0  0  0
 28 30  1  0  0  0  0
 28 83  1  6  0  0  0
 29 84  1  0  0  0  0
 30 31  1  0  0  0  0
 30 85  1  6  0  0  0
 31 86  1  0  0  0  0
 32 33  1  0  0  0  0
 33 34  1  0  0  0  0
 33 36  1  0  0  0  0
 33 87  1  6  0  0  0
 34 35  1  0  0  0  0
 34 88  1  0  0  0  0
 34 89  1  0  0  0  0
 35 90  1  0  0  0  0
 36 37  1  0  0  0  0
 36 38  1  0  0  0  0
 36 91  1  1  0  0  0
 37 92  1  0  0  0  0
 38 39  1  0  0  0  0
 38 93  1  6  0  0  0
 39 40  1  0  0  0  0
 40 41  1  0  0  0  0
 40 42  1  0  0  0  0
 40 94  1  0  0  0  0
 41 95  1  0  0  0  0
 41 96  1  0  0  0  0
 41 97  1  0  0  0  0
 42 43  2  0  0  0  0
 42 44  1  0  0  0  0
 44 45  1  0  0  0  0
 44 98  1  0  0  0  0
 45 46  1  0  0  0  0
 45 47  1  0  0  0  0
 45 99  1  6  0  0  0
 46100  1  0  0  0  0
 46101  1  0  0  0  0
 46102  1  0  0  0  0
 47 48  2  0  0  0  0
 47 49  1  0  0  0  0
 49 50  1  0  0  0  0
 49103  1  0  0  0  0
 50 51  1  0  0  0  0
 50 65  1  0  0  0  0
 50104  1  0  0  0  0
 51 52  1  0  0  0  0
 51105  1  0  0  0  0
 51106  1  0  0  0  0
 52 53  1  0  0  0  0
 52107  1  0  0  0  0
 52108  1  0  0  0  0
 53 54  2  0  0  0  0
 53 55  1  0  0  0  0
 55 56  1  0  0  0  0
 55109  1  0  0  0  0
 56 57  1  0  0  0  0
 56 62  1  0  0  0  0
 56110  1  1  0  0  0
 57 58  1  0  0  0  0
 57111  1  0  0  0  0
 57112  1  0  0  0  0
 58 59  1  0  0  0  0
 58113  1  0  0  0  0
 58114  1  0  0  0  0
 59 60  1  0  0  0  0
 59115  1  0  0  0  0
 59116  1  0  0  0  0
 60 61  1  0  0  0  0
 60117  1  0  0  0  0
 60118  1  0  0  0  0
 61119  1  0  0  0  0
 61120  1  0  0  0  0
 62 63  2  0  0  0  0
 62 64  1  0  0  0  0
 64121  1  0  0  0  0
 65 66  2  0  0  0  0
 65 67  1  0  0  0  0
 67122  1  0  0  0  0
M  END
$$$$
