CHEBI:17830
 OpenBabel04242417413D

 32 31  0  0  0  0  0  0  0  0999 V2000
    0.6946    2.7927    0.3422 C   0  0  0  0  0  0  0  0  0  0  0  0
   -0.4387    2.5241    1.3287 C   0  0  0  0  0  0  0  0  0  0  0  0
   -1.3294    1.4812    0.7810 N   0  0  0  0  0  0  0  0  0  0  0  0
    0.0433    2.1939    2.7828 C   0  0  0  0  0  0  0  0  0  0  0  0
   -1.1368    1.7952    3.5781 N   0  0  0  0  0  0  0  0  0  0  0  0
    1.1412    1.1102    2.8372 C   0  0  0  0  0  0  0  0  0  0  0  0
    1.6971    0.8664    4.2474 C   0  0  0  0  0  0  0  0  0  0  0  0
    2.6224   -0.3516    4.3203 C   0  0  0  0  0  0  0  0  0  0  0  0
    1.9610   -1.7153    4.0689 C   0  0  0  0  0  0  0  0  0  0  0  0
    0.9533   -2.1366    5.1365 C   0  0  0  0  0  0  0  0  0  0  0  0
   -0.4394   -1.5003    5.1076 C   0  0  0  0  0  0  0  0  0  0  0  0
   -0.8560   -1.1016    3.9838 O   0  0  0  0  0  0  0  0  0  0  0  0
   -1.0073   -1.4340    6.2347 O   0  5  0  0  0  0  0  0  0  0  0  0
    0.2990    3.1796   -0.6040 H   0  0  0  0  0  0  0  0  0  0  0  0
    1.2640    1.8866    0.1094 H   0  0  0  0  0  0  0  0  0  0  0  0
    1.3870    3.5413    0.7416 H   0  0  0  0  0  0  0  0  0  0  0  0
   -1.0392    3.4419    1.3883 H   0  0  0  0  0  0  0  0  0  0  0  0
   -2.0649    1.3792    1.4946 H   0  0  0  0  0  0  0  0  0  0  0  0
   -0.8486    0.5821    0.8624 H   0  0  0  0  0  0  0  0  0  0  0  0
    0.4448    3.1195    3.2142 H   0  0  0  0  0  0  0  0  0  0  0  0
   -0.9116    1.8495    4.5732 H   0  0  0  0  0  0  0  0  0  0  0  0
   -1.2491    0.7596    3.4911 H   0  0  0  0  0  0  0  0  0  0  0  0
    1.9866    1.4089    2.2066 H   0  0  0  0  0  0  0  0  0  0  0  0
    0.7551    0.1832    2.4038 H   0  0  0  0  0  0  0  0  0  0  0  0
    0.9029    0.7648    4.9900 H   0  0  0  0  0  0  0  0  0  0  0  0
    2.2694    1.7538    4.5468 H   0  0  0  0  0  0  0  0  0  0  0  0
    3.0969   -0.3677    5.3095 H   0  0  0  0  0  0  0  0  0  0  0  0
    3.4343   -0.2212    3.5938 H   0  0  0  0  0  0  0  0  0  0  0  0
    2.7636   -2.4645    4.0580 H   0  0  0  0  0  0  0  0  0  0  0  0
    1.5087   -1.7509    3.0730 H   0  0  0  0  0  0  0  0  0  0  0  0
    1.3959   -1.9897    6.1299 H   0  0  0  0  0  0  0  0  0  0  0  0
    0.7821   -3.2164    5.0327 H   0  0  0  0  0  0  0  0  0  0  0  0
  1  2  1  0  0  0  0
  1 14  1  0  0  0  0
  1 15  1  0  0  0  0
  1 16  1  0  0  0  0
  2  3  1  0  0  0  0
  2  4  1  0  0  0  0
  2 17  1  0  0  0  0
  3 18  1  0  0  0  0
  3 19  1  0  0  0  0
  4  5  1  0  0  0  0
  4  6  1  0  0  0  0
  4 20  1  0  0  0  0
  5 21  1  0  0  0  0
  5 22  1  0  0  0  0
  6  7  1  0  0  0  0
  6 23  1  0  0  0  0
  6 24  1  0  0  0  0
  7  8  1  0  0  0  0
  7 25  1  0  0  0  0
  7 26  1  0  0  0  0
  8  9  1  0  0  0  0
  8 27  1  0  0  0  0
  8 28  1  0  0  0  0
  9 10  1  0  0  0  0
  9 29  1  0  0  0  0
  9 30  1  0  0  0  0
 10 11  1  0  0  0  0
 10 31  1  0  0  0  0
 10 32  1  0  0  0  0
 11 12  2  0  0  0  0
 11 13  1  0  0  0  0
M  CHG  1  13  -1
M  END
$$$$
