CHEBI:17432
 OpenBabel04242416343D

 40 39  0  0  0  0  0  0  0  0999 V2000
    6.3698   -7.9647    0.9178 N   0  0  0  0  0  0  0  0  0  0  0  0
    7.0874   -7.4677    1.9641 C   0  0  0  0  0  0  0  0  0  0  0  0
    8.3108   -7.4140    1.9206 O   0  0  0  0  0  0  0  0  0  0  0  0
    6.2688   -7.0327    3.1586 C   0  0  0  0  0  0  0  0  0  0  0  0
    6.6687   -5.6268    3.6015 C   0  0  0  0  0  0  0  0  0  0  0  0
    5.8530   -5.1754    4.8133 C   0  0  0  0  0  0  0  0  0  0  0  0
    6.2528   -3.7887    5.3378 C   0  0  0  0  0  0  0  0  0  0  0  0
    6.0807   -2.6037    4.3647 C   0  0  0  0  0  0  0  0  0  0  0  0
    4.3304   -2.4308    3.8500 S   0  0  0  0  0  0  0  0  0  0  0  0
    6.6045   -1.3091    5.0202 C   0  0  0  0  0  0  0  0  0  0  0  0
    6.5721   -0.0894    4.0963 C   0  0  0  0  0  0  0  0  0  0  0  0
    7.3885    1.3205    4.9119 S   0  0  0  0  0  0  0  0  0  0  0  0
    6.8215    2.5984    3.8417 C   0  0  0  0  0  0  0  0  0  0  0  0
    6.6111    2.3972    2.6517 O   0  0  0  0  0  0  0  0  0  0  0  0
    6.6625    3.9519    4.4979 C   0  0  0  0  0  0  0  0  0  0  0  0
    5.4282    4.6695    3.9616 C   0  0  0  0  0  0  0  0  0  0  0  0
    4.1669    3.9637    4.3795 C   0  0  0  0  0  0  0  0  0  0  0  0
    4.0800    2.9613    5.0664 O   0  0  0  0  0  0  0  0  0  0  0  0
    3.0643    4.5782    3.9124 O   0  0  0  0  0  0  0  0  0  0  0  0
    6.8860   -8.2125    0.0835 H   0  0  0  0  0  0  0  0  0  0  0  0
    5.3663   -7.8711    0.8498 H   0  0  0  0  0  0  0  0  0  0  0  0
    6.4424   -7.7581    3.9617 H   0  0  0  0  0  0  0  0  0  0  0  0
    5.2004   -7.0595    2.9166 H   0  0  0  0  0  0  0  0  0  0  0  0
    6.5206   -4.9380    2.7622 H   0  0  0  0  0  0  0  0  0  0  0  0
    7.7374   -5.6009    3.8470 H   0  0  0  0  0  0  0  0  0  0  0  0
    6.0015   -5.8973    5.6268 H   0  0  0  0  0  0  0  0  0  0  0  0
    4.7838   -5.2040    4.5763 H   0  0  0  0  0  0  0  0  0  0  0  0
    7.3058   -3.8374    5.6462 H   0  0  0  0  0  0  0  0  0  0  0  0
    5.6821   -3.5928    6.2557 H   0  0  0  0  0  0  0  0  0  0  0  0
    6.6661   -2.7894    3.4580 H   0  0  0  0  0  0  0  0  0  0  0  0
    3.8423   -2.1040    5.0562 H   0  0  0  0  0  0  0  0  0  0  0  0
    7.6416   -1.4892    5.3351 H   0  0  0  0  0  0  0  0  0  0  0  0
    6.0333   -1.0991    5.9348 H   0  0  0  0  0  0  0  0  0  0  0  0
    5.5402    0.1934    3.8681 H   0  0  0  0  0  0  0  0  0  0  0  0
    7.0922   -0.3034    3.1570 H   0  0  0  0  0  0  0  0  0  0  0  0
    7.5620    4.5360    4.2730 H   0  0  0  0  0  0  0  0  0  0  0  0
    6.5918    3.8519    5.5869 H   0  0  0  0  0  0  0  0  0  0  0  0
    5.4515    4.7250    2.8680 H   0  0  0  0  0  0  0  0  0  0  0  0
    5.3988    5.6859    4.3686 H   0  0  0  0  0  0  0  0  0  0  0  0
    2.3217    4.0231    4.2311 H   0  0  0  0  0  0  0  0  0  0  0  0
  1  2  1  0  0  0  0
  1 20  1  0  0  0  0
  1 21  1  0  0  0  0
  2  3  2  0  0  0  0
  2  4  1  0  0  0  0
  4  5  1  0  0  0  0
  4 22  1  0  0  0  0
  4 23  1  0  0  0  0
  5  6  1  0  0  0  0
  5 24  1  0  0  0  0
  5 25  1  0  0  0  0
  6  7  1  0  0  0  0
  6 26  1  0  0  0  0
  6 27  1  0  0  0  0
  7  8  1  0  0  0  0
  7 28  1  0  0  0  0
  7 29  1  0  0  0  0
  8  9  1  0  0  0  0
  8 10  1  0  0  0  0
  8 30  1  0  0  0  0
  9 31  1  0  0  0  0
 10 11  1  0  0  0  0
 10 32  1  0  0  0  0
 10 33  1  0  0  0  0
 11 12  1  0  0  0  0
 11 34  1  0  0  0  0
 11 35  1  0  0  0  0
 12 13  1  0  0  0  0
 13 14  2  0  0  0  0
 13 15  1  0  0  0  0
 15 16  1  0  0  0  0
 15 36  1  0  0  0  0
 15 37  1  0  0  0  0
 16 17  1  0  0  0  0
 16 38  1  0  0  0  0
 16 39  1  0  0  0  0
 17 18  2  0  0  0  0
 17 19  1  0  0  0  0
 19 40  1  0  0  0  0
M  END
$$$$
