CHEBI:27389
 OpenBabel04252409453D

 16 15  0  0  0  0  0  0  0  0999 V2000
    1.4430    0.1845   -0.7226 C   0  0  0  0  0  0  0  0  0  0  0  0
    2.1950   -0.1442    0.5686 C   0  0  0  0  0  0  0  0  0  0  0  0
    2.3249    1.1230    1.4223 C   0  0  0  0  0  0  0  0  0  0  0  0
    3.2239    0.8880    2.5662 N   0  0  0  0  0  0  0  0  0  0  0  0
    1.4780   -1.2636    1.3168 C   0  0  0  0  0  0  0  0  0  0  0  0
    0.6743   -2.0320    0.8079 O   0  0  0  0  0  0  0  0  0  0  0  0
    1.8715   -1.3967    2.6057 O   0  0  0  0  0  0  0  0  0  0  0  0
    1.9580    0.9695   -1.2864 H   0  0  0  0  0  0  0  0  0  0  0  0
    0.4231    0.5259   -0.5130 H   0  0  0  0  0  0  0  0  0  0  0  0
    1.3707   -0.6964   -1.3699 H   0  0  0  0  0  0  0  0  0  0  0  0
    3.1895   -0.5223    0.2993 H   0  0  0  0  0  0  0  0  0  0  0  0
    1.3438    1.4234    1.8080 H   0  0  0  0  0  0  0  0  0  0  0  0
    2.7216    1.9553    0.8304 H   0  0  0  0  0  0  0  0  0  0  0  0
    3.2006    1.7222    3.1640 H   0  0  0  0  0  0  0  0  0  0  0  0
    4.1903    0.8617    2.2211 H   0  0  0  0  0  0  0  0  0  0  0  0
    2.5023   -0.6748    2.8628 H   0  0  0  0  0  0  0  0  0  0  0  0
  1  2  1  0  0  0  0
  1  8  1  0  0  0  0
  1  9  1  0  0  0  0
  1 10  1  0  0  0  0
  2  3  1  0  0  0  0
  2  5  1  0  0  0  0
  2 11  1  0  0  0  0
  3  4  1  0  0  0  0
  3 12  1  0  0  0  0
  3 13  1  0  0  0  0
  4 14  1  0  0  0  0
  4 15  1  0  0  0  0
  5  6  2  0  0  0  0
  5  7  1  0  0  0  0
  7 16  1  0  0  0  0
M  END
$$$$
