CHEBI:17782
 OpenBabel04242417173D

 20 19  0  0  1  0  0  0  0  0999 V2000
   -0.1150   -0.6838   -0.3998 O   0  0  0  0  0  0  0  0  0  0  0  0
    0.9148   -0.9047   -1.0348 C   0  0  0  0  0  0  0  0  0  0  0  0
    2.2969   -0.7161   -0.4313 C   0  0  2  0  0  0  0  0  0  0  0  0
    2.1899   -0.2474    0.9241 O   0  0  0  0  0  0  0  0  0  0  0  0
    3.1249    0.3331   -1.1929 C   0  0  1  0  0  0  0  0  0  0  0  0
    4.3907    0.4872   -0.5318 O   0  0  0  0  0  0  0  0  0  0  0  0
    3.3988    0.0547   -2.6635 C   0  0  0  0  0  0  0  0  0  0  0  0
    4.0119   -1.3043   -2.8370 C   0  0  0  0  0  0  0  0  0  0  0  0
    3.3368   -2.3265   -2.8944 O   0  0  0  0  0  0  0  0  0  0  0  0
    5.5395   -1.3611   -2.8355 C   0  0  0  0  0  0  0  0  0  0  0  0
    6.2413   -0.6734   -3.5489 O   0  0  0  0  0  0  0  0  0  0  0  0
    6.0178   -2.2431   -1.9527 O   0  0  0  0  0  0  0  0  0  0  0  0
    0.8779   -1.2998   -2.0634 H   0  0  0  0  0  0  0  0  0  0  0  0
    2.8004   -1.6855   -0.3831 H   0  0  0  0  0  0  0  0  0  0  0  0
    1.2777   -0.4607    1.2150 H   0  0  0  0  0  0  0  0  0  0  0  0
    2.6271    1.3078   -1.1149 H   0  0  0  0  0  0  0  0  0  0  0  0
    4.1741    0.5460    0.4242 H   0  0  0  0  0  0  0  0  0  0  0  0
    4.0774    0.8057   -3.0828 H   0  0  0  0  0  0  0  0  0  0  0  0
    2.4783    0.0927   -3.2558 H   0  0  0  0  0  0  0  0  0  0  0  0
    6.9914   -2.1765   -2.0307 H   0  0  0  0  0  0  0  0  0  0  0  0
  1  2  2  0  0  0  0
  2 13  1  0  0  0  0
  3  5  1  0  0  0  0
  3  4  1  0  0  0  0
  3  2  1  0  0  0  0
  3 14  1  6  0  0  0
  4 15  1  0  0  0  0
  5  6  1  0  0  0  0
  5  7  1  0  0  0  0
  5 16  1  1  0  0  0
  6 17  1  0  0  0  0
  7  8  1  0  0  0  0
  7 18  1  0  0  0  0
  7 19  1  0  0  0  0
  8  9  2  0  0  0  0
  8 10  1  0  0  0  0
 10 11  2  0  0  0  0
 10 12  1  0  0  0  0
 12 20  1  0  0  0  0
M  END
$$$$
