CHEBI:17730
 OpenBabel04242417113D

 36 38  0  0  0  0  0  0  0  0999 V2000
   -2.2708   -0.7951    0.1049 O   0  0  0  0  0  0  0  0  0  0  0  0
   -1.4147   -1.3806   -0.5515 C   0  0  0  0  0  0  0  0  0  0  0  0
   -1.8183   -2.4576   -1.4968 C   0  0  0  0  0  0  0  0  0  0  0  0
   -3.1542   -2.6174   -1.8330 O   0  0  0  0  0  0  0  0  0  0  0  0
   -4.1753   -1.3673   -2.0669 S   0  0  0  0  0  0  0  0  0  0  0  0
   -3.4323   -0.2572   -2.6274 O   0  0  0  0  0  0  0  0  0  0  0  0
   -5.3456   -1.8889   -2.7384 O   0  0  0  0  0  0  0  0  0  0  0  0
   -4.6306   -0.9466   -0.5767 O   0  0  0  0  0  0  0  0  0  0  0  0
   -0.8594   -3.2841   -1.9571 C   0  0  0  0  0  0  0  0  0  0  0  0
   -1.1216   -4.3639   -2.9375 C   0  0  0  0  0  0  0  0  0  0  0  0
   -2.2186   -5.2388   -2.8270 C   0  0  0  0  0  0  0  0  0  0  0  0
   -2.4699   -6.2121   -3.8029 C   0  0  0  0  0  0  0  0  0  0  0  0
   -1.6058   -6.3282   -4.8825 C   0  0  0  0  0  0  0  0  0  0  0  0
   -1.8054   -7.2447   -5.8763 O   0  0  0  0  0  0  0  0  0  0  0  0
   -0.4964   -5.4962   -4.9826 C   0  0  0  0  0  0  0  0  0  0  0  0
    0.3596   -5.6234   -6.0390 O   0  0  0  0  0  0  0  0  0  0  0  0
   -0.2480   -4.5207   -4.0262 C   0  0  0  0  0  0  0  0  0  0  0  0
    0.4821   -3.1792   -1.6208 O   0  0  0  0  0  0  0  0  0  0  0  0
    0.9074   -2.0637   -0.9472 C   0  0  0  0  0  0  0  0  0  0  0  0
    2.2893   -1.9148   -0.8069 C   0  0  0  0  0  0  0  0  0  0  0  0
    2.7869   -0.7875   -0.1647 C   0  0  0  0  0  0  0  0  0  0  0  0
    4.1258   -0.5962    0.0029 O   0  0  0  0  0  0  0  0  0  0  0  0
    1.9300    0.1930    0.3253 C   0  0  0  0  0  0  0  0  0  0  0  0
    0.5496    0.0304    0.1936 C   0  0  0  0  0  0  0  0  0  0  0  0
   -0.2812    1.0100    0.6560 O   0  0  0  0  0  0  0  0  0  0  0  0
    0.0312   -1.1119   -0.4275 C   0  0  0  0  0  0  0  0  0  0  0  0
   -3.8183   -0.6485   -0.0891 H   0  0  0  0  0  0  0  0  0  0  0  0
   -2.9009   -5.1698   -1.9819 H   0  0  0  0  0  0  0  0  0  0  0  0
   -3.3372   -6.8567   -3.7000 H   0  0  0  0  0  0  0  0  0  0  0  0
   -2.6581   -7.6852   -5.7160 H   0  0  0  0  0  0  0  0  0  0  0  0
   -0.0183   -6.3490   -6.5754 H   0  0  0  0  0  0  0  0  0  0  0  0
    0.6188   -3.8765   -4.1496 H   0  0  0  0  0  0  0  0  0  0  0  0
    2.9534   -2.6757   -1.2059 H   0  0  0  0  0  0  0  0  0  0  0  0
    4.6080   -1.3594   -0.3583 H   0  0  0  0  0  0  0  0  0  0  0  0
    2.3533    1.0699    0.8064 H   0  0  0  0  0  0  0  0  0  0  0  0
    0.2406    1.7588    0.9900 H   0  0  0  0  0  0  0  0  0  0  0  0
  1  2  2  0  0  0  0
  2  3  1  0  0  0  0
  2 26  1  0  0  0  0
  3  4  1  0  0  0  0
  3  9  2  0  0  0  0
  4  5  1  0  0  0  0
  5  6  2  0  0  0  0
  5  7  2  0  0  0  0
  5  8  1  0  0  0  0
  8 27  1  0  0  0  0
  9 10  1  0  0  0  0
  9 18  1  0  0  0  0
 10 11  1  0  0  0  0
 10 17  2  0  0  0  0
 11 12  2  0  0  0  0
 11 28  1  0  0  0  0
 12 13  1  0  0  0  0
 12 29  1  0  0  0  0
 13 14  1  0  0  0  0
 13 15  2  0  0  0  0
 14 30  1  0  0  0  0
 15 16  1  0  0  0  0
 15 17  1  0  0  0  0
 16 31  1  0  0  0  0
 17 32  1  0  0  0  0
 18 19  1  0  0  0  0
 19 20  1  0  0  0  0
 19 26  2  0  0  0  0
 20 21  2  0  0  0  0
 20 33  1  0  0  0  0
 21 22  1  0  0  0  0
 21 23  1  0  0  0  0
 22 34  1  0  0  0  0
 23 24  2  0  0  0  0
 23 35  1  0  0  0  0
 24 25  1  0  0  0  0
 24 26  1  0  0  0  0
 25 36  1  0  0  0  0
M  END
$$$$
