CHEBI:15653
 OpenBabel04242413003D

 49 49  0  0  1  0  0  0  0  0999 V2000
   17.0850    1.0581    0.0088 C   0  0  0  0  0  0  0  0  0  0  0  0
   15.6733    1.6232   -0.0786 C   0  0  0  0  0  0  0  0  0  0  0  0
   14.7121    0.8778    0.8047 C   0  0  0  0  0  0  0  0  0  0  0  0
   13.4303    1.2189    1.0197 C   0  0  0  0  0  0  0  0  0  0  0  0
   12.6953    2.3669    0.3764 C   0  0  0  0  0  0  0  0  0  0  0  0
   11.2454    2.0830    0.1322 C   0  0  2  0  0  0  0  0  0  0  0  0
   10.4716    3.2762   -0.3657 O   0  0  0  0  0  0  0  0  0  0  0  0
   10.2267    2.7427    0.8242 C   0  0  0  0  0  0  0  0  0  0  0  0
    9.4256    2.9571    1.8477 C   0  0  0  0  0  0  0  0  0  0  0  0
    9.4674    2.1723    3.0582 C   0  0  0  0  0  0  0  0  0  0  0  0
    8.6508    2.3135    4.1149 C   0  0  0  0  0  0  0  0  0  0  0  0
    7.4755    3.2436    4.2526 C   0  0  0  0  0  0  0  0  0  0  0  0
    7.8170    4.5944    4.8864 C   0  0  0  0  0  0  0  0  0  0  0  0
    8.3252    4.4901    6.3278 C   0  0  0  0  0  0  0  0  0  0  0  0
    8.5484    5.8830    6.9245 C   0  0  0  0  0  0  0  0  0  0  0  0
    9.2324    5.8710    8.2930 C   0  0  0  0  0  0  0  0  0  0  0  0
   10.6506    5.2857    8.3450 C   0  0  0  0  0  0  0  0  0  0  0  0
   11.6852    6.0303    7.5006 C   0  0  0  0  0  0  0  0  0  0  0  0
   11.6695    5.6672    6.0408 C   0  0  0  0  0  0  0  0  0  0  0  0
   11.5522    6.4475    5.1105 O   0  0  0  0  0  0  0  0  0  0  0  0
   11.8469    4.3530    5.8141 O   0  0  0  0  0  0  0  0  0  0  0  0
   17.7662    1.6418   -0.6187 H   0  0  0  0  0  0  0  0  0  0  0  0
   17.1149    0.0190   -0.3364 H   0  0  0  0  0  0  0  0  0  0  0  0
   17.4626    1.0872    1.0366 H   0  0  0  0  0  0  0  0  0  0  0  0
   15.3376    1.5690   -1.1201 H   0  0  0  0  0  0  0  0  0  0  0  0
   15.7012    2.6784    0.2177 H   0  0  0  0  0  0  0  0  0  0  0  0
   15.0992    0.0063    1.3313 H   0  0  0  0  0  0  0  0  0  0  0  0
   12.8529    0.6089    1.7130 H   0  0  0  0  0  0  0  0  0  0  0  0
   13.1544    2.6206   -0.5863 H   0  0  0  0  0  0  0  0  0  0  0  0
   12.8056    3.2449    1.0254 H   0  0  0  0  0  0  0  0  0  0  0  0
   11.0412    1.1497   -0.3731 H   0  0  0  0  0  0  0  0  0  0  0  0
    8.7180    3.7780    1.7795 H   0  0  0  0  0  0  0  0  0  0  0  0
   10.2470    1.4127    3.1158 H   0  0  0  0  0  0  0  0  0  0  0  0
    8.8212    1.6610    4.9711 H   0  0  0  0  0  0  0  0  0  0  0  0
    6.7073    2.7405    4.8532 H   0  0  0  0  0  0  0  0  0  0  0  0
    7.0115    3.4172    3.2747 H   0  0  0  0  0  0  0  0  0  0  0  0
    6.9154    5.2193    4.8690 H   0  0  0  0  0  0  0  0  0  0  0  0
    8.5674    5.1083    4.2720 H   0  0  0  0  0  0  0  0  0  0  0  0
    9.2527    3.9124    6.3415 H   0  0  0  0  0  0  0  0  0  0  0  0
    7.5990    3.9445    6.9421 H   0  0  0  0  0  0  0  0  0  0  0  0
    7.5718    6.3718    7.0364 H   0  0  0  0  0  0  0  0  0  0  0  0
    9.1154    6.5119    6.2313 H   0  0  0  0  0  0  0  0  0  0  0  0
    8.6030    5.3121    8.9969 H   0  0  0  0  0  0  0  0  0  0  0  0
    9.2664    6.9020    8.6680 H   0  0  0  0  0  0  0  0  0  0  0  0
   10.6295    4.2201    8.0941 H   0  0  0  0  0  0  0  0  0  0  0  0
   10.9789    5.3405    9.3913 H   0  0  0  0  0  0  0  0  0  0  0  0
   12.6936    5.8078    7.8698 H   0  0  0  0  0  0  0  0  0  0  0  0
   11.5468    7.1134    7.5932 H   0  0  0  0  0  0  0  0  0  0  0  0
   11.7915    4.2712    4.8380 H   0  0  0  0  0  0  0  0  0  0  0  0
  1  2  1  0  0  0  0
  1 22  1  0  0  0  0
  1 23  1  0  0  0  0
  1 24  1  0  0  0  0
  2  3  1  0  0  0  0
  2 25  1  0  0  0  0
  2 26  1  0  0  0  0
  3  4  2  0  0  0  0
  3 27  1  0  0  0  0
  4  5  1  0  0  0  0
  4 28  1  0  0  0  0
  5  6  1  0  0  0  0
  5 29  1  0  0  0  0
  5 30  1  0  0  0  0
  6  7  1  0  0  0  0
  6  8  1  0  0  0  0
  6 31  1  6  0  0  0
  7  8  1  0  0  0  0
  8  9  2  0  0  0  0
  9 10  1  0  0  0  0
  9 32  1  0  0  0  0
 10 11  2  0  0  0  0
 10 33  1  0  0  0  0
 11 12  1  0  0  0  0
 11 34  1  0  0  0  0
 12 13  1  0  0  0  0
 12 35  1  0  0  0  0
 12 36  1  0  0  0  0
 13 14  1  0  0  0  0
 13 37  1  0  0  0  0
 13 38  1  0  0  0  0
 14 15  1  0  0  0  0
 14 39  1  0  0  0  0
 14 40  1  0  0  0  0
 15 16  1  0  0  0  0
 15 41  1  0  0  0  0
 15 42  1  0  0  0  0
 16 17  1  0  0  0  0
 16 43  1  0  0  0  0
 16 44  1  0  0  0  0
 17 18  1  0  0  0  0
 17 45  1  0  0  0  0
 17 46  1  0  0  0  0
 18 19  1  0  0  0  0
 18 47  1  0  0  0  0
 18 48  1  0  0  0  0
 19 20  2  0  0  0  0
 19 21  1  0  0  0  0
 21 49  1  0  0  0  0
M  END
$$$$
