CHEBI:17500
 OpenBabel04242416423D

 75 78  0  0  1  0  0  0  0  0999 V2000
    7.7820    4.4177   -1.7210 C   0  0  0  0  0  0  0  0  0  0  0  0
    7.4153    3.0896   -1.0534 C   0  0  0  0  0  0  0  0  0  0  0  0
    6.0398    3.2108   -0.3943 C   0  0  0  0  0  0  0  0  0  0  0  0
    7.4813    1.9525   -2.0912 C   0  0  0  0  0  0  0  0  0  0  0  0
    7.1801    0.5668   -1.5089 C   0  0  0  0  0  0  0  0  0  0  0  0
    7.3093   -0.5256   -2.5799 C   0  0  0  0  0  0  0  0  0  0  0  0
    7.0134   -1.9641   -2.0706 C   0  0  1  0  0  0  0  0  0  0  0  0
    5.5737   -2.0548   -1.5525 C   0  0  0  0  0  0  0  0  0  0  0  0
    7.3061   -3.0002   -3.2009 C   0  0  1  0  0  0  0  0  0  0  0  0
    8.8029   -2.9744   -3.6345 C   0  0  0  0  0  0  0  0  0  0  0  0
    9.1889   -4.4010   -4.0442 C   0  0  0  0  0  0  0  0  0  0  0  0
    7.8591   -5.1343   -4.1098 C   0  0  1  0  0  0  0  0  0  0  0  0
    7.8889   -6.6706   -4.0931 C   0  0  2  0  0  0  0  0  0  0  0  0
    8.7517   -7.2588   -5.2290 C   0  0  2  0  0  0  0  0  0  0  0  0
    8.4807   -6.6301   -6.4761 O   0  0  0  0  0  0  0  0  0  0  0  0
    8.5395   -8.7268   -5.4260 C   0  0  0  0  0  0  0  0  0  0  0  0
    7.5198   -9.4358   -4.9095 C   0  0  0  0  0  0  0  0  0  0  0  0
    7.4279  -10.9273   -5.1576 C   0  0  0  0  0  0  0  0  0  0  0  0
    6.0450  -11.3498   -5.6584 C   0  0  1  0  0  0  0  0  0  0  0  0
    5.9623  -12.7723   -5.7213 O   0  0  0  0  0  0  0  0  0  0  0  0
    4.9348  -10.8204   -4.7549 C   0  0  0  0  0  0  0  0  0  0  0  0
    5.0275   -9.3039   -4.5884 C   0  0  0  0  0  0  0  0  0  0  0  0
    6.4052   -8.8015   -4.0629 C   0  0  1  0  0  0  0  0  0  0  0  0
    6.5957   -9.2650   -2.5975 C   0  0  0  0  0  0  0  0  0  0  0  0
    6.4336   -7.2216   -4.1737 C   0  0  1  0  0  0  0  0  0  0  0  0
    5.4667   -6.5119   -3.1899 C   0  0  0  0  0  0  0  0  0  0  0  0
    5.5869   -4.9803   -3.1772 C   0  0  0  0  0  0  0  0  0  0  0  0
    7.0381   -4.5179   -2.9485 C   0  0  2  0  0  0  0  0  0  0  0  0
    7.5414   -4.9429   -1.5477 C   0  0  0  0  0  0  0  0  0  0  0  0
    7.7789    5.2348   -0.9918 H   0  0  0  0  0  0  0  0  0  0  0  0
    7.0717    4.6714   -2.5157 H   0  0  0  0  0  0  0  0  0  0  0  0
    8.7827    4.3691   -2.1628 H   0  0  0  0  0  0  0  0  0  0  0  0
    8.1549    2.8910   -0.2674 H   0  0  0  0  0  0  0  0  0  0  0  0
    5.2473    3.3097   -1.1437 H   0  0  0  0  0  0  0  0  0  0  0  0
    5.9972    4.0879    0.2606 H   0  0  0  0  0  0  0  0  0  0  0  0
    5.8171    2.3375    0.2264 H   0  0  0  0  0  0  0  0  0  0  0  0
    8.4835    1.9391   -2.5385 H   0  0  0  0  0  0  0  0  0  0  0  0
    6.7764    2.1599   -2.9068 H   0  0  0  0  0  0  0  0  0  0  0  0
    6.1648    0.5716   -1.1065 H   0  0  0  0  0  0  0  0  0  0  0  0
    7.8662    0.3539   -0.6808 H   0  0  0  0  0  0  0  0  0  0  0  0
    8.3287   -0.4782   -2.9797 H   0  0  0  0  0  0  0  0  0  0  0  0
    6.6351   -0.2940   -3.4145 H   0  0  0  0  0  0  0  0  0  0  0  0
    7.6867   -2.1635   -1.2270 H   0  0  0  0  0  0  0  0  0  0  0  0
    4.8513   -1.8809   -2.3562 H   0  0  0  0  0  0  0  0  0  0  0  0
    5.3808   -1.3292   -0.7580 H   0  0  0  0  0  0  0  0  0  0  0  0
    5.3644   -3.0245   -1.1004 H   0  0  0  0  0  0  0  0  0  0  0  0
    6.7116   -2.6998   -4.0773 H   0  0  0  0  0  0  0  0  0  0  0  0
    9.4618   -2.6362   -2.8268 H   0  0  0  0  0  0  0  0  0  0  0  0
    8.9364   -2.2866   -4.4776 H   0  0  0  0  0  0  0  0  0  0  0  0
    9.8565   -4.8462   -3.2981 H   0  0  0  0  0  0  0  0  0  0  0  0
    9.7159   -4.4104   -5.0037 H   0  0  0  0  0  0  0  0  0  0  0  0
    7.3850   -4.8291   -5.0573 H   0  0  0  0  0  0  0  0  0  0  0  0
    8.3394   -7.0079   -3.1526 H   0  0  0  0  0  0  0  0  0  0  0  0
    9.8082   -7.0806   -4.9995 H   0  0  0  0  0  0  0  0  0  0  0  0
    7.6394   -6.9896   -6.8048 H   0  0  0  0  0  0  0  0  0  0  0  0
    9.2946   -9.2223   -6.0344 H   0  0  0  0  0  0  0  0  0  0  0  0
    7.6704  -11.4670   -4.2335 H   0  0  0  0  0  0  0  0  0  0  0  0
    8.1807  -11.2621   -5.8829 H   0  0  0  0  0  0  0  0  0  0  0  0
    5.8955  -10.9731   -6.6773 H   0  0  0  0  0  0  0  0  0  0  0  0
    6.0647  -13.1201   -4.8188 H   0  0  0  0  0  0  0  0  0  0  0  0
    4.9694  -11.3175   -3.7777 H   0  0  0  0  0  0  0  0  0  0  0  0
    3.9597  -11.0878   -5.1805 H   0  0  0  0  0  0  0  0  0  0  0  0
    4.2227   -8.9843   -3.9159 H   0  0  0  0  0  0  0  0  0  0  0  0
    4.8164   -8.8436   -5.5633 H   0  0  0  0  0  0  0  0  0  0  0  0
    6.7064  -10.3509   -2.5120 H   0  0  0  0  0  0  0  0  0  0  0  0
    5.7342   -9.0016   -1.9752 H   0  0  0  0  0  0  0  0  0  0  0  0
    7.4877   -8.8211   -2.1438 H   0  0  0  0  0  0  0  0  0  0  0  0
    6.0640   -6.9611   -5.1780 H   0  0  0  0  0  0  0  0  0  0  0  0
    5.6223   -6.8678   -2.1679 H   0  0  0  0  0  0  0  0  0  0  0  0
    4.4320   -6.7669   -3.4466 H   0  0  0  0  0  0  0  0  0  0  0  0
    4.9135   -4.5943   -2.4083 H   0  0  0  0  0  0  0  0  0  0  0  0
    5.2134   -4.5902   -4.1331 H   0  0  0  0  0  0  0  0  0  0  0  0
    6.9015   -4.5425   -0.7564 H   0  0  0  0  0  0  0  0  0  0  0  0
    8.5577   -4.5884   -1.3485 H   0  0  0  0  0  0  0  0  0  0  0  0
    7.5528   -6.0271   -1.4106 H   0  0  0  0  0  0  0  0  0  0  0  0
  1  2  1  0  0  0  0
  1 30  1  0  0  0  0
  1 31  1  0  0  0  0
  1 32  1  0  0  0  0
  2  3  1  0  0  0  0
  2  4  1  0  0  0  0
  2 33  1  0  0  0  0
  3 34  1  0  0  0  0
  3 35  1  0  0  0  0
  3 36  1  0  0  0  0
  4  5  1  0  0  0  0
  4 37  1  0  0  0  0
  4 38  1  0  0  0  0
  5  6  1  0  0  0  0
  5 39  1  0  0  0  0
  5 40  1  0  0  0  0
  6  7  1  0  0  0  0
  6 41  1  0  0  0  0
  6 42  1  0  0  0  0
  7  8  1  0  0  0  0
  7  9  1  0  0  0  0
  7 43  1  1  0  0  0
  8 44  1  0  0  0  0
  8 45  1  0  0  0  0
  8 46  1  0  0  0  0
  9 10  1  0  0  0  0
  9 28  1  0  0  0  0
  9 47  1  6  0  0  0
 10 11  1  0  0  0  0
 10 48  1  0  0  0  0
 10 49  1  0  0  0  0
 11 12  1  0  0  0  0
 11 50  1  0  0  0  0
 11 51  1  0  0  0  0
 12 13  1  0  0  0  0
 12 28  1  0  0  0  0
 12 52  1  6  0  0  0
 13 14  1  0  0  0  0
 13 25  1  0  0  0  0
 13 53  1  1  0  0  0
 14 15  1  0  0  0  0
 14 16  1  0  0  0  0
 14 54  1  1  0  0  0
 15 55  1  0  0  0  0
 16 17  2  0  0  0  0
 16 56  1  0  0  0  0
 17 18  1  0  0  0  0
 17 23  1  0  0  0  0
 18 19  1  0  0  0  0
 18 57  1  0  0  0  0
 18 58  1  0  0  0  0
 19 20  1  0  0  0  0
 19 21  1  0  0  0  0
 19 59  1  6  0  0  0
 20 60  1  0  0  0  0
 21 22  1  0  0  0  0
 21 61  1  0  0  0  0
 21 62  1  0  0  0  0
 22 23  1  0  0  0  0
 22 63  1  0  0  0  0
 22 64  1  0  0  0  0
 23 24  1  1  0  0  0
 23 25  1  0  0  0  0
 24 65  1  0  0  0  0
 24 66  1  0  0  0  0
 24 67  1  0  0  0  0
 25 26  1  0  0  0  0
 25 68  1  6  0  0  0
 26 27  1  0  0  0  0
 26 69  1  0  0  0  0
 26 70  1  0  0  0  0
 27 28  1  0  0  0  0
 27 71  1  0  0  0  0
 27 72  1  0  0  0  0
 28 29  1  1  0  0  0
 29 73  1  0  0  0  0
 29 74  1  0  0  0  0
 29 75  1  0  0  0  0
M  END
$$$$
