CHEBI:16805
 OpenBabel04242415173D

 37 38  0  0  1  0  0  0  0  0999 V2000
    1.5772   -0.9999   -3.1714 O   0  0  0  0  0  0  0  0  0  0  0  0
    2.5337   -0.3954   -3.6439 C   0  0  0  0  0  0  0  0  0  0  0  0
    3.0288   -0.7020   -4.8664 O   0  0  0  0  0  0  0  0  0  0  0  0
    3.1677    0.7935   -2.9541 C   0  0  0  0  0  0  0  0  0  0  0  0
    4.6121    0.9661   -3.2674 C   0  0  0  0  0  0  0  0  0  0  0  0
    5.6797    1.1504   -2.4154 C   0  0  0  0  0  0  0  0  0  0  0  0
    6.7806    1.2367   -3.2241 N   0  0  0  0  0  0  0  0  0  0  0  0
    8.1728    1.4093   -2.8325 C   0  0  0  0  0  0  0  0  0  0  0  0
    8.2843    1.3578   -1.3907 O   0  0  0  0  0  0  0  0  0  0  0  0
    9.1013    2.4653   -0.9575 C   0  0  2  0  0  0  0  0  0  0  0  0
    8.2106    3.4924   -0.2565 C   0  0  0  0  0  0  0  0  0  0  0  0
    8.9972    4.5900    0.1700 O   0  0  0  0  0  0  0  0  0  0  0  0
    8.2782    5.7627    0.9869 P   0  0  0  0  0  0  0  0  0  0  0  0
    9.1258    6.9372    1.3263 O   0  0  0  0  0  0  0  0  0  0  0  0
    6.9789    6.1438    0.1464 O   0  0  0  0  0  0  0  0  0  0  0  0
    7.6703    5.0527    2.2781 O   0  0  0  0  0  0  0  0  0  0  0  0
    9.7868    3.0158   -2.2070 C   0  0  1  0  0  0  0  0  0  0  0  0
   10.9554    2.2406   -2.5367 O   0  0  0  0  0  0  0  0  0  0  0  0
    8.7535    2.7513   -3.2864 C   0  0  1  0  0  0  0  0  0  0  0  0
    9.3545    2.6906   -4.5792 O   0  0  0  0  0  0  0  0  0  0  0  0
    6.3490    1.1136   -4.5177 C   0  0  0  0  0  0  0  0  0  0  0  0
    5.0459    0.9451   -4.5784 N   0  0  0  0  0  0  0  0  0  0  0  0
    3.8054   -0.1306   -5.0970 H   0  0  0  0  0  0  0  0  0  0  0  0
    3.0426    0.6595   -1.8736 H   0  0  0  0  0  0  0  0  0  0  0  0
    2.6166    1.6903   -3.2564 H   0  0  0  0  0  0  0  0  0  0  0  0
    5.7430    1.2071   -1.3368 H   0  0  0  0  0  0  0  0  0  0  0  0
    8.7220    0.5554   -3.2475 H   0  0  0  0  0  0  0  0  0  0  0  0
    9.8438    2.0800   -0.2496 H   0  0  0  0  0  0  0  0  0  0  0  0
    7.7222    3.0242    0.6053 H   0  0  0  0  0  0  0  0  0  0  0  0
    7.4162    3.8385   -0.9265 H   0  0  0  0  0  0  0  0  0  0  0  0
    6.6266    7.0092    0.4245 H   0  0  0  0  0  0  0  0  0  0  0  0
    8.2742    5.1423    3.0391 H   0  0  0  0  0  0  0  0  0  0  0  0
   10.0940    4.0635   -2.1500 H   0  0  0  0  0  0  0  0  0  0  0  0
   11.6147    2.4007   -1.8352 H   0  0  0  0  0  0  0  0  0  0  0  0
    7.9892    3.5370   -3.2926 H   0  0  0  0  0  0  0  0  0  0  0  0
   10.2697    2.3696   -4.4269 H   0  0  0  0  0  0  0  0  0  0  0  0
    7.0227    1.1571   -5.3661 H   0  0  0  0  0  0  0  0  0  0  0  0
  1  2  2  0  0  0  0
  2  3  1  0  0  0  0
  2  4  1  0  0  0  0
  3 23  1  0  0  0  0
  4  5  1  0  0  0  0
  4 24  1  0  0  0  0
  4 25  1  0  0  0  0
  5  6  2  0  0  0  0
  5 22  1  0  0  0  0
  6  7  1  0  0  0  0
  6 26  1  0  0  0  0
  7  8  1  0  0  0  0
  7 21  1  0  0  0  0
  8  9  1  0  0  0  0
  8 19  1  0  0  0  0
  8 27  1  0  0  0  0
  9 10  1  0  0  0  0
 10 11  1  0  0  0  0
 10 17  1  0  0  0  0
 10 28  1  1  0  0  0
 11 12  1  0  0  0  0
 11 29  1  0  0  0  0
 11 30  1  0  0  0  0
 12 13  1  0  0  0  0
 13 14  2  0  0  0  0
 13 15  1  0  0  0  0
 13 16  1  0  0  0  0
 15 31  1  0  0  0  0
 16 32  1  0  0  0  0
 17 18  1  0  0  0  0
 17 19  1  0  0  0  0
 17 33  1  1  0  0  0
 18 34  1  0  0  0  0
 19 20  1  0  0  0  0
 19 35  1  1  0  0  0
 20 36  1  0  0  0  0
 21 22  2  0  0  0  0
 21 37  1  0  0  0  0
M  END
$$$$
