CHEBI:17741
 OpenBabel04242417123D

 12 11  0  0  0  0  0  0  0  0999 V2000
    1.0186    0.1093   -0.1157 C   0  0  0  0  0  0  0  0  0  0  0  0
    2.4428    0.0107    0.1287 N   0  0  0  0  0  0  0  0  0  0  0  0
    3.1460    1.2107    0.5380 C   0  0  0  0  0  0  0  0  0  0  0  0
    3.1452   -1.1358   -0.1798 C   0  0  0  0  0  0  0  0  0  0  0  0
    4.3588   -1.2780   -0.1067 O   0  0  0  0  0  0  0  0  0  0  0  0
    0.5272    0.4868    0.7854 H   0  0  0  0  0  0  0  0  0  0  0  0
    0.5950   -0.8649   -0.3751 H   0  0  0  0  0  0  0  0  0  0  0  0
    0.8507    0.8030   -0.9446 H   0  0  0  0  0  0  0  0  0  0  0  0
    2.6596    1.6224    1.4270 H   0  0  0  0  0  0  0  0  0  0  0  0
    3.0985    1.9395   -0.2763 H   0  0  0  0  0  0  0  0  0  0  0  0
    4.1941    1.0032    0.7692 H   0  0  0  0  0  0  0  0  0  0  0  0
    2.4927   -1.9629   -0.5051 H   0  0  0  0  0  0  0  0  0  0  0  0
  1  2  1  0  0  0  0
  1  6  1  0  0  0  0
  1  7  1  0  0  0  0
  1  8  1  0  0  0  0
  2  3  1  0  0  0  0
  2  4  1  0  0  0  0
  3  9  1  0  0  0  0
  3 10  1  0  0  0  0
  3 11  1  0  0  0  0
  4  5  2  0  0  0  0
  4 12  1  0  0  0  0
M  END
$$$$
