CHEBI:17839
 OpenBabel04242417413D

 36 38  0  0  0  0  0  0  0  0999 V2000
    1.0563   -0.4553    0.3187 N   0  0  0  0  0  0  0  0  0  0  0  0
    2.4001   -0.2827    0.2570 C   0  0  0  0  0  0  0  0  0  0  0  0
    2.9200    0.8759    0.4866 N   0  0  0  0  0  0  0  0  0  0  0  0
    4.2839    1.0120    0.3989 C   0  0  0  0  0  0  0  0  0  0  0  0
    5.1318   -0.0029    0.0848 C   0  0  0  0  0  0  0  0  0  0  0  0
    4.5002   -1.3408   -0.1366 C   0  0  0  0  0  0  0  0  0  0  0  0
    5.1350   -2.3679   -0.3698 O   0  0  0  0  0  0  0  0  0  0  0  0
    3.1379   -1.3717   -0.0645 N   0  0  0  0  0  0  0  0  0  0  0  0
    6.5124    0.1122   -0.0143 N   0  0  0  0  0  0  0  0  0  0  0  0
    6.9956    1.3271    0.0155 C   0  0  0  0  0  0  0  0  0  0  0  0
    8.5036    1.5184   -0.0694 C   0  0  0  0  0  0  0  0  0  0  0  0
    8.9358    1.7400   -1.4486 N   0  0  0  0  0  0  0  0  0  0  0  0
    8.7523    2.9850   -2.0590 C   0  0  0  0  0  0  0  0  0  0  0  0
    8.7868    4.1990   -1.3648 C   0  0  0  0  0  0  0  0  0  0  0  0
    8.6024    5.4196   -2.0274 C   0  0  0  0  0  0  0  0  0  0  0  0
    8.4240    5.4698   -3.4155 C   0  0  0  0  0  0  0  0  0  0  0  0
    8.2086    6.7906   -4.1282 C   0  0  0  0  0  0  0  0  0  0  0  0
    8.1062    6.7561   -5.3949 O   0  0  0  0  0  0  0  0  0  0  0  0
    8.1361    7.8327   -3.4028 O   0  5  0  0  0  0  0  0  0  0  0  0
    8.4649    4.2616   -4.1221 C   0  0  0  0  0  0  0  0  0  0  0  0
    8.6395    3.0427   -3.4544 C   0  0  0  0  0  0  0  0  0  0  0  0
    6.1334    2.5886    0.0686 C   0  0  0  0  0  0  0  0  0  0  0  0
    4.8259    2.2703    0.6283 N   0  0  0  0  0  0  0  0  0  0  0  0
    0.5791    0.4409    0.3657 H   0  0  0  0  0  0  0  0  0  0  0  0
    0.6601   -1.0601   -0.3882 H   0  0  0  0  0  0  0  0  0  0  0  0
    2.7090   -2.2739   -0.1758 H   0  0  0  0  0  0  0  0  0  0  0  0
    8.9785    0.5947    0.2825 H   0  0  0  0  0  0  0  0  0  0  0  0
    8.8258    2.3057    0.6174 H   0  0  0  0  0  0  0  0  0  0  0  0
    8.6509    0.9732   -2.0567 H   0  0  0  0  0  0  0  0  0  0  0  0
    8.9622    4.2388   -0.2962 H   0  0  0  0  0  0  0  0  0  0  0  0
    8.6077    6.3509   -1.4626 H   0  0  0  0  0  0  0  0  0  0  0  0
    8.3606    4.2784   -5.2059 H   0  0  0  0  0  0  0  0  0  0  0  0
    8.6743    2.1342   -4.0487 H   0  0  0  0  0  0  0  0  0  0  0  0
    6.0151    2.9779   -0.9472 H   0  0  0  0  0  0  0  0  0  0  0  0
    6.6194    3.3444    0.6914 H   0  0  0  0  0  0  0  0  0  0  0  0
    4.1156    2.9868    0.5091 H   0  0  0  0  0  0  0  0  0  0  0  0
  1  2  1  0  0  0  0
  1 24  1  0  0  0  0
  1 25  1  0  0  0  0
  2  3  2  0  0  0  0
  2  8  1  0  0  0  0
  3  4  1  0  0  0  0
  4  5  2  0  0  0  0
  4 23  1  0  0  0  0
  5  6  1  0  0  0  0
  5  9  1  0  0  0  0
  6  7  2  0  0  0  0
  6  8  1  0  0  0  0
  8 26  1  0  0  0  0
  9 10  2  0  0  0  0
 10 11  1  0  0  0  0
 10 22  1  0  0  0  0
 11 12  1  0  0  0  0
 11 27  1  0  0  0  0
 11 28  1  0  0  0  0
 12 13  1  0  0  0  0
 12 29  1  0  0  0  0
 13 14  1  0  0  0  0
 13 21  2  0  0  0  0
 14 15  2  0  0  0  0
 14 30  1  0  0  0  0
 15 16  1  0  0  0  0
 15 31  1  0  0  0  0
 16 17  1  0  0  0  0
 16 20  2  0  0  0  0
 17 18  2  0  0  0  0
 17 19  1  0  0  0  0
 20 21  1  0  0  0  0
 20 32  1  0  0  0  0
 21 33  1  0  0  0  0
 22 23  1  0  0  0  0
 22 34  1  0  0  0  0
 22 35  1  0  0  0  0
 23 36  1  0  0  0  0
M  CHG  1  19  -1
M  END
$$$$
