CHEBI:17784
 OpenBabel04242417173D

 26 25  0  0  1  0  0  0  0  0999 V2000
    1.9933   -2.7170   -1.6796 N   0  0  0  0  0  0  0  0  0  0  0  0
    2.7284   -1.4601   -1.3076 C   0  0  1  0  0  0  0  0  0  0  0  0
    3.4562   -1.6665    0.0107 C   0  0  0  0  0  0  0  0  0  0  0  0
    4.1585   -0.8397    0.5669 O   0  0  0  0  0  0  0  0  0  0  0  0
    3.2648   -2.9273    0.4863 O   0  0  0  0  0  0  0  0  0  0  0  0
    3.6448   -0.9198   -2.4159 C   0  0  1  0  0  0  0  0  0  0  0  0
    2.7370   -0.4944   -3.4749 O   0  0  0  0  0  0  0  0  0  0  0  0
    4.6799   -1.8489   -3.0885 C   0  0  2  0  0  0  0  0  0  0  0  0
    5.0407   -1.1453   -4.3264 O   0  0  0  0  0  0  0  0  0  0  0  0
    6.0162   -2.1431   -2.3708 C   0  0  2  0  0  0  0  0  0  0  0  0
    6.8916   -2.6711   -3.4089 O   0  0  0  0  0  0  0  0  0  0  0  0
    6.0142   -3.1753   -1.2448 C   0  0  0  0  0  0  0  0  0  0  0  0
    5.2133   -4.2931   -1.6177 O   0  0  0  0  0  0  0  0  0  0  0  0
    1.0450   -2.6371   -1.2932 H   0  0  0  0  0  0  0  0  0  0  0  0
    1.8211   -2.6411   -2.6928 H   0  0  0  0  0  0  0  0  0  0  0  0
    1.9483   -0.7125   -1.1109 H   0  0  0  0  0  0  0  0  0  0  0  0
    2.7356   -3.3947   -0.2124 H   0  0  0  0  0  0  0  0  0  0  0  0
    4.1482   -0.0061   -2.0779 H   0  0  0  0  0  0  0  0  0  0  0  0
    3.3273   -0.3691   -4.2524 H   0  0  0  0  0  0  0  0  0  0  0  0
    4.2086   -2.7726   -3.4405 H   0  0  0  0  0  0  0  0  0  0  0  0
    5.9216   -1.5077   -4.5692 H   0  0  0  0  0  0  0  0  0  0  0  0
    6.4867   -1.2130   -2.0354 H   0  0  0  0  0  0  0  0  0  0  0  0
    6.6269   -3.6064   -3.5255 H   0  0  0  0  0  0  0  0  0  0  0  0
    5.6574   -2.7644   -0.3047 H   0  0  0  0  0  0  0  0  0  0  0  0
    7.0296   -3.5502   -1.0745 H   0  0  0  0  0  0  0  0  0  0  0  0
    5.1969   -4.8906   -0.8466 H   0  0  0  0  0  0  0  0  0  0  0  0
  1  2  1  0  0  0  0
  1 14  1  0  0  0  0
  1 15  1  0  0  0  0
  2  3  1  0  0  0  0
  2  6  1  0  0  0  0
  2 16  1  1  0  0  0
  3  4  2  0  0  0  0
  3  5  1  0  0  0  0
  5 17  1  0  0  0  0
  6  7  1  0  0  0  0
  6 18  1  6  0  0  0
  7 19  1  0  0  0  0
  8  9  1  0  0  0  0
  8  6  1  0  0  0  0
  8 20  1  1  0  0  0
  9 21  1  0  0  0  0
 10 12  1  0  0  0  0
 10 11  1  0  0  0  0
 10  8  1  0  0  0  0
 10 22  1  1  0  0  0
 11 23  1  0  0  0  0
 12 13  1  0  0  0  0
 12 24  1  0  0  0  0
 12 25  1  0  0  0  0
 13 26  1  0  0  0  0
M  END
$$$$
