CHEBI:15623
 OpenBabel04242412553D

 20 19  0  0  1  0  0  0  0  0999 V2000
    7.3402    2.8102   -0.7955 O   0  0  0  0  0  0  0  0  0  0  0  0
    8.2139    1.9726   -0.9076 C   0  0  0  0  0  0  0  0  0  0  0  0
    9.5060    2.2408   -0.7048 O   0  0  0  0  0  0  0  0  0  0  0  0
    7.9447    0.5100   -1.2897 C   0  0  0  0  0  0  0  0  0  0  0  0
    8.8641   -0.2684   -1.5138 O   0  0  0  0  0  0  0  0  0  0  0  0
    6.4920    0.1256   -1.4002 C   0  0  0  0  0  0  0  0  0  0  0  0
    6.3352   -1.3886   -1.3099 C   0  0  2  0  0  0  0  0  0  0  0  0
    4.9703   -1.7417   -1.5256 O   0  0  0  0  0  0  0  0  0  0  0  0
    6.7667   -1.9065    0.0614 C   0  0  0  0  0  0  0  0  0  0  0  0
    6.6084   -1.2387    1.0886 O   0  0  0  0  0  0  0  0  0  0  0  0
    7.3226   -3.3215    0.1166 C   0  0  0  0  0  0  0  0  0  0  0  0
    7.7619   -3.6651    1.4235 O   0  0  0  0  0  0  0  0  0  0  0  0
    9.5450    3.1866   -0.4577 H   0  0  0  0  0  0  0  0  0  0  0  0
    6.1039    0.4924   -2.3569 H   0  0  0  0  0  0  0  0  0  0  0  0
    5.9174    0.6145   -0.6054 H   0  0  0  0  0  0  0  0  0  0  0  0
    6.9345   -1.8843   -2.0811 H   0  0  0  0  0  0  0  0  0  0  0  0
    4.4340   -1.2930   -0.8446 H   0  0  0  0  0  0  0  0  0  0  0  0
    8.1744   -3.4035   -0.5631 H   0  0  0  0  0  0  0  0  0  0  0  0
    6.5385   -4.0225   -0.1808 H   0  0  0  0  0  0  0  0  0  0  0  0
    7.3344   -3.0344    2.0369 H   0  0  0  0  0  0  0  0  0  0  0  0
  1  2  2  0  0  0  0
  2  3  1  0  0  0  0
  2  4  1  0  0  0  0
  3 13  1  0  0  0  0
  4  5  2  0  0  0  0
  4  6  1  0  0  0  0
  6 14  1  0  0  0  0
  6 15  1  0  0  0  0
  7  9  1  0  0  0  0
  7  8  1  0  0  0  0
  7  6  1  0  0  0  0
  7 16  1  6  0  0  0
  8 17  1  0  0  0  0
  9 10  2  0  0  0  0
  9 11  1  0  0  0  0
 11 12  1  0  0  0  0
 11 18  1  0  0  0  0
 11 19  1  0  0  0  0
 12 20  1  0  0  0  0
M  END
$$$$
