CHEBI:17763
 OpenBabel04242417143D

 26 27  0  0  0  0  0  0  0  0999 V2000
    1.1866    1.1659   -0.5804 C   0  0  0  0  0  0  0  0  0  0  0  0
    2.6367    1.3445   -0.2411 C   0  0  0  0  0  0  0  0  0  0  0  0
    3.0456    1.8709    0.7844 O   0  0  0  0  0  0  0  0  0  0  0  0
    3.4047    0.8034   -1.2683 O   0  0  0  0  0  0  0  0  0  0  0  0
    4.7965    0.8861   -1.1265 C   0  0  0  0  0  0  0  0  0  0  0  0
    5.4468    2.1085   -0.9646 C   0  0  0  0  0  0  0  0  0  0  0  0
    6.8442    2.1452   -0.8852 C   0  0  0  0  0  0  0  0  0  0  0  0
    7.5996    0.9684   -0.9870 C   0  0  0  0  0  0  0  0  0  0  0  0
    9.0671    0.9372   -0.9144 C   0  0  0  0  0  0  0  0  0  0  0  0
    9.8405    2.2059   -0.7074 C   0  0  0  0  0  0  0  0  0  0  0  0
    9.6855   -0.2466   -1.0364 C   0  0  0  0  0  0  0  0  0  0  0  0
    8.9748   -1.5182   -1.2400 C   0  0  0  0  0  0  0  0  0  0  0  0
    9.5940   -2.5700   -1.3515 O   0  0  0  0  0  0  0  0  0  0  0  0
    7.5938   -1.4604   -1.2988 O   0  0  0  0  0  0  0  0  0  0  0  0
    6.9111   -0.2348   -1.1729 C   0  0  0  0  0  0  0  0  0  0  0  0
    5.5200   -0.2937   -1.2510 C   0  0  0  0  0  0  0  0  0  0  0  0
    0.5736    1.6586    0.1797 H   0  0  0  0  0  0  0  0  0  0  0  0
    0.9394    0.1017   -0.5973 H   0  0  0  0  0  0  0  0  0  0  0  0
    0.9715    1.6271   -1.5478 H   0  0  0  0  0  0  0  0  0  0  0  0
    4.8801    3.0327   -0.8900 H   0  0  0  0  0  0  0  0  0  0  0  0
    7.3216    3.1113   -0.7437 H   0  0  0  0  0  0  0  0  0  0  0  0
    9.5620    2.6813    0.2392 H   0  0  0  0  0  0  0  0  0  0  0  0
    9.6585    2.9105   -1.5258 H   0  0  0  0  0  0  0  0  0  0  0  0
   10.9204    2.0232   -0.6721 H   0  0  0  0  0  0  0  0  0  0  0  0
   10.7651   -0.3376   -0.9920 H   0  0  0  0  0  0  0  0  0  0  0  0
    5.0167   -1.2427   -1.4047 H   0  0  0  0  0  0  0  0  0  0  0  0
  1  2  1  0  0  0  0
  1 17  1  0  0  0  0
  1 18  1  0  0  0  0
  1 19  1  0  0  0  0
  2  3  2  0  0  0  0
  2  4  1  0  0  0  0
  4  5  1  0  0  0  0
  5  6  1  0  0  0  0
  5 16  2  0  0  0  0
  6  7  2  0  0  0  0
  6 20  1  0  0  0  0
  7  8  1  0  0  0  0
  7 21  1  0  0  0  0
  8  9  1  0  0  0  0
  8 15  2  0  0  0  0
  9 10  1  0  0  0  0
  9 11  2  0  0  0  0
 10 22  1  0  0  0  0
 10 23  1  0  0  0  0
 10 24  1  0  0  0  0
 11 12  1  0  0  0  0
 11 25  1  0  0  0  0
 12 13  2  0  0  0  0
 12 14  1  0  0  0  0
 14 15  1  0  0  0  0
 15 16  1  0  0  0  0
 16 26  1  0  0  0  0
M  END
$$$$
