CHEBI:16316
 OpenBabel04242414113D

 18 17  0  0  1  0  0  0  0  0999 V2000
    2.0688   -0.3927    0.8785 N   0  0  0  0  0  0  0  0  0  0  0  0
    1.3762    0.6727    1.6515 C   0  0  1  0  0  0  0  0  0  0  0  0
    0.2334    1.2860    0.8443 C   0  0  0  0  0  0  0  0  0  0  0  0
   -0.3237    2.4827    1.5638 C   0  0  0  0  0  0  0  0  0  0  0  0
    0.3067    3.2811    2.2359 O   0  0  0  0  0  0  0  0  0  0  0  0
   -1.6426    2.6442    1.3510 O   0  0  0  0  0  0  0  0  0  0  0  0
    0.8597    0.0598    2.9677 C   0  0  0  0  0  0  0  0  0  0  0  0
   -0.2968    0.1467    3.3751 O   0  0  0  0  0  0  0  0  0  0  0  0
    1.8409   -0.6042    3.6733 N   0  0  0  0  0  0  0  0  0  0  0  0
    1.3841   -1.3192    4.8077 O   0  0  0  0  0  0  0  0  0  0  0  0
    2.4580    0.0169    0.0272 H   0  0  0  0  0  0  0  0  0  0  0  0
    1.3771   -1.0749    0.5578 H   0  0  0  0  0  0  0  0  0  0  0  0
    2.1179    1.4360    1.9162 H   0  0  0  0  0  0  0  0  0  0  0  0
   -0.5659    0.5510    0.6906 H   0  0  0  0  0  0  0  0  0  0  0  0
    0.5804    1.6262   -0.1381 H   0  0  0  0  0  0  0  0  0  0  0  0
   -1.8874    3.4117    1.9097 H   0  0  0  0  0  0  0  0  0  0  0  0
    2.5990   -1.0252    3.1389 H   0  0  0  0  0  0  0  0  0  0  0  0
    0.4358   -1.0663    4.8483 H   0  0  0  0  0  0  0  0  0  0  0  0
  1  2  1  0  0  0  0
  1 11  1  0  0  0  0
  1 12  1  0  0  0  0
  2  3  1  0  0  0  0
  2  7  1  0  0  0  0
  2 13  1  1  0  0  0
  3  4  1  0  0  0  0
  3 14  1  0  0  0  0
  3 15  1  0  0  0  0
  4  5  2  0  0  0  0
  4  6  1  0  0  0  0
  6 16  1  0  0  0  0
  7  8  2  0  0  0  0
  7  9  1  0  0  0  0
  9 10  1  0  0  0  0
  9 17  1  0  0  0  0
 10 18  1  0  0  0  0
M  END
$$$$
