CHEBI:15464
 OpenBabel04242411593D

107111  0  0  1  0  0  0  0  0999 V2000
    6.9038   -0.1922    6.8976 C   0  0  0  0  0  0  0  0  0  0  0  0
    7.3331    0.5318    5.6073 C   0  0  0  0  0  0  0  0  0  0  0  0
    8.2396    1.7222    5.9808 C   0  0  0  0  0  0  0  0  0  0  0  0
    8.1480   -0.4713    4.7509 C   0  0  0  0  0  0  0  0  0  0  0  0
    8.7024    0.1818    3.6181 O   0  0  0  0  0  0  0  0  0  0  0  0
    9.5047   -0.7222    2.5594 P   0  0  0  0  0  0  0  0  0  0  0  0
    8.6502   -1.6361    1.7487 O   0  0  0  0  0  0  0  0  0  0  0  0
   10.2198    0.4025    1.6701 O   0  0  0  0  0  0  0  0  0  0  0  0
   10.6980   -1.3643    3.3756 O   0  0  0  0  0  0  0  0  0  0  0  0
   11.5905   -2.5653    2.8608 P   0  0  0  0  0  0  0  0  0  0  0  0
   11.0654   -3.9428    3.0850 O   0  0  0  0  0  0  0  0  0  0  0  0
   11.8931   -2.2490    1.3229 O   0  0  0  0  0  0  0  0  0  0  0  0
   13.0233   -2.2900    3.5285 O   0  0  0  0  0  0  0  0  0  0  0  0
   13.1833   -2.6269    4.8919 C   0  0  0  0  0  0  0  0  0  0  0  0
   14.3622   -1.8709    5.5003 C   0  0  1  0  0  0  0  0  0  0  0  0
   14.6470   -2.4064    6.8110 O   0  0  0  0  0  0  0  0  0  0  0  0
   16.0846   -2.3468    7.0253 C   0  0  1  0  0  0  0  0  0  0  0  0
   16.5638   -3.7024    7.2550 N   0  0  0  0  0  0  0  0  0  0  0  0
   17.0705   -4.5845    6.3330 C   0  0  0  0  0  0  0  0  0  0  0  0
   17.3775   -5.7475    6.8626 N   0  0  0  0  0  0  0  0  0  0  0  0
   17.0930   -5.6031    8.2004 C   0  0  0  0  0  0  0  0  0  0  0  0
   17.2044   -6.4902    9.2819 C   0  0  0  0  0  0  0  0  0  0  0  0
   17.6598   -7.7967    9.1398 N   0  0  0  0  0  0  0  0  0  0  0  0
   16.8292   -6.0632   10.5071 N   0  0  0  0  0  0  0  0  0  0  0  0
   16.3870   -4.7914   10.6311 C   0  0  0  0  0  0  0  0  0  0  0  0
   16.2371   -3.8543    9.6710 N   0  0  0  0  0  0  0  0  0  0  0  0
   16.6011   -4.3359    8.4715 C   0  0  0  0  0  0  0  0  0  0  0  0
   16.6834   -1.6510    5.7922 C   0  0  2  0  0  0  0  0  0  0  0  0
   16.7163   -0.2280    5.9836 O   0  0  0  0  0  0  0  0  0  0  0  0
   15.6611   -2.0179    4.7212 C   0  0  2  0  0  0  0  0  0  0  0  0
   15.7524   -1.2419    3.5455 O   0  0  0  0  0  0  0  0  0  0  0  0
   17.1343   -1.2971    2.7404 P   0  0  0  0  0  0  0  0  0  0  0  0
   18.1319   -0.2673    3.1330 O   0  0  0  0  0  0  0  0  0  0  0  0
   17.6488   -2.7997    2.9116 O   0  0  0  0  0  0  0  0  0  0  0  0
   16.6875   -1.2764    1.2140 O   0  0  0  0  0  0  0  0  0  0  0  0
    6.1116    1.0187    4.7818 C   0  0  1  0  0  0  0  0  0  0  0  0
    5.2807   -0.1066    4.4497 O   0  0  0  0  0  0  0  0  0  0  0  0
    5.2562    2.0982    5.4832 C   0  0  0  0  0  0  0  0  0  0  0  0
    5.5130    3.2971    5.4235 O   0  0  0  0  0  0  0  0  0  0  0  0
    4.1783    1.5923    6.1808 N   0  0  0  0  0  0  0  0  0  0  0  0
    3.1885    2.4517    6.8049 C   0  0  0  0  0  0  0  0  0  0  0  0
    2.2075    3.0029    5.7819 C   0  0  0  0  0  0  0  0  0  0  0  0
    1.2135    3.9515    6.4058 C   0  0  0  0  0  0  0  0  0  0  0  0
    0.1039    3.5635    6.7714 O   0  0  0  0  0  0  0  0  0  0  0  0
    1.5410    5.2625    6.5790 N   0  0  0  0  0  0  0  0  0  0  0  0
    2.7997    5.9367    6.2996 C   0  0  0  0  0  0  0  0  0  0  0  0
    2.9192    6.4118    4.8547 C   0  0  0  0  0  0  0  0  0  0  0  0
    4.5004    7.2821    4.6469 S   0  0  0  0  0  0  0  0  0  0  0  0
    4.3925    7.5865    2.9284 C   0  0  0  0  0  0  0  0  0  0  0  0
    3.9560    6.7680    2.1371 O   0  0  0  0  0  0  0  0  0  0  0  0
    4.8563    8.9426    2.5568 C   0  0  0  0  0  0  0  0  0  0  0  0
    4.7802    9.3318    1.2776 C   0  0  0  0  0  0  0  0  0  0  0  0
    5.2024   10.6386    0.8300 C   0  0  0  0  0  0  0  0  0  0  0  0
    5.1368   10.9980   -0.4605 C   0  0  0  0  0  0  0  0  0  0  0  0
    5.5969   12.2862   -0.9966 C   0  0  0  0  0  0  0  0  0  0  0  0
    4.9512   12.8051   -2.1419 C   0  0  0  0  0  0  0  0  0  0  0  0
    5.4004   13.9784   -2.7573 C   0  0  0  0  0  0  0  0  0  0  0  0
    6.4997   14.6034   -2.2139 C   0  0  0  0  0  0  0  0  0  0  0  0
    7.1342   14.1090   -1.0998 C   0  0  0  0  0  0  0  0  0  0  0  0
    6.7108   12.9573   -0.4696 C   0  0  0  0  0  0  0  0  0  0  0  0
    8.2052   14.8639   -0.7345 O   0  0  0  0  0  0  0  0  0  0  0  0
    8.1877   15.8738   -1.7646 C   0  0  0  0  0  0  0  0  0  0  0  0
    7.0913   15.7301   -2.6913 O   0  0  0  0  0  0  0  0  0  0  0  0
    7.7746   -0.5984    7.4260 H   0  0  0  0  0  0  0  0  0  0  0  0
    6.2293   -1.0291    6.6883 H   0  0  0  0  0  0  0  0  0  0  0  0
    6.3962    0.4871    7.5902 H   0  0  0  0  0  0  0  0  0  0  0  0
    9.1793    1.3750    6.4257 H   0  0  0  0  0  0  0  0  0  0  0  0
    7.7595    2.3813    6.7117 H   0  0  0  0  0  0  0  0  0  0  0  0
    8.4914    2.3269    5.1024 H   0  0  0  0  0  0  0  0  0  0  0  0
    7.5275   -1.3109    4.4174 H   0  0  0  0  0  0  0  0  0  0  0  0
    8.9734   -0.8861    5.3415 H   0  0  0  0  0  0  0  0  0  0  0  0
    9.6895    0.6103    0.8806 H   0  0  0  0  0  0  0  0  0  0  0  0
   12.2439   -3.0388    0.8715 H   0  0  0  0  0  0  0  0  0  0  0  0
   13.3406   -3.7084    4.9714 H   0  0  0  0  0  0  0  0  0  0  0  0
   12.2718   -2.3966    5.4564 H   0  0  0  0  0  0  0  0  0  0  0  0
   14.0927   -0.8110    5.5969 H   0  0  0  0  0  0  0  0  0  0  0  0
   16.2661   -1.7659    7.9366 H   0  0  0  0  0  0  0  0  0  0  0  0
   17.2082   -4.3545    5.2854 H   0  0  0  0  0  0  0  0  0  0  0  0
   17.5830   -8.1363    8.1866 H   0  0  0  0  0  0  0  0  0  0  0  0
   17.3123   -8.3964    9.8761 H   0  0  0  0  0  0  0  0  0  0  0  0
   16.1151   -4.4862   11.6377 H   0  0  0  0  0  0  0  0  0  0  0  0
   17.7068   -1.9610    5.5652 H   0  0  0  0  0  0  0  0  0  0  0  0
   17.1033    0.1754    5.1807 H   0  0  0  0  0  0  0  0  0  0  0  0
   15.7528   -3.0688    4.4335 H   0  0  0  0  0  0  0  0  0  0  0  0
   18.4908   -2.9405    2.4387 H   0  0  0  0  0  0  0  0  0  0  0  0
   16.4380   -0.3826    0.9164 H   0  0  0  0  0  0  0  0  0  0  0  0
    6.4458    1.4558    3.8323 H   0  0  0  0  0  0  0  0  0  0  0  0
    4.8122    0.1285    3.6277 H   0  0  0  0  0  0  0  0  0  0  0  0
    3.9830    0.6022    6.0543 H   0  0  0  0  0  0  0  0  0  0  0  0
    3.7144    3.2544    7.3307 H   0  0  0  0  0  0  0  0  0  0  0  0
    2.6664    1.8570    7.5616 H   0  0  0  0  0  0  0  0  0  0  0  0
    1.6426    2.1786    5.3280 H   0  0  0  0  0  0  0  0  0  0  0  0
    2.7226    3.4946    4.9528 H   0  0  0  0  0  0  0  0  0  0  0  0
    0.7887    5.8098    6.9832 H   0  0  0  0  0  0  0  0  0  0  0  0
    3.6241    5.2673    6.5537 H   0  0  0  0  0  0  0  0  0  0  0  0
    2.8387    6.7915    6.9852 H   0  0  0  0  0  0  0  0  0  0  0  0
    2.1001    7.0974    4.6108 H   0  0  0  0  0  0  0  0  0  0  0  0
    2.8615    5.5672    4.1624 H   0  0  0  0  0  0  0  0  0  0  0  0
    5.2352    9.5921    3.3364 H   0  0  0  0  0  0  0  0  0  0  0  0
    4.3946    8.6448    0.5243 H   0  0  0  0  0  0  0  0  0  0  0  0
    5.5839   11.3279    1.5801 H   0  0  0  0  0  0  0  0  0  0  0  0
    4.7323   10.3074   -1.1983 H   0  0  0  0  0  0  0  0  0  0  0  0
    4.0919   12.2880   -2.5655 H   0  0  0  0  0  0  0  0  0  0  0  0
    4.9103   14.3732   -3.6397 H   0  0  0  0  0  0  0  0  0  0  0  0
    7.2571   12.5825    0.3885 H   0  0  0  0  0  0  0  0  0  0  0  0
    9.1291   15.8180   -2.3238 H   0  0  0  0  0  0  0  0  0  0  0  0
    8.1180   16.8587   -1.2896 H   0  0  0  0  0  0  0  0  0  0  0  0
  1  2  1  0  0  0  0
  1 64  1  0  0  0  0
  1 65  1  0  0  0  0
  1 66  1  0  0  0  0
  2  3  1  0  0  0  0
  2  4  1  0  0  0  0
  2 36  1  0  0  0  0
  3 67  1  0  0  0  0
  3 68  1  0  0  0  0
  3 69  1  0  0  0  0
  4  5  1  0  0  0  0
  4 70  1  0  0  0  0
  4 71  1  0  0  0  0
  5  6  1  0  0  0  0
  6  7  2  0  0  0  0
  6  8  1  0  0  0  0
  6  9  1  0  0  0  0
  8 72  1  0  0  0  0
  9 10  1  0  0  0  0
 10 11  2  0  0  0  0
 10 12  1  0  0  0  0
 10 13  1  0  0  0  0
 12 73  1  0  0  0  0
 13 14  1  0  0  0  0
 14 74  1  0  0  0  0
 14 75  1  0  0  0  0
 15 16  1  0  0  0  0
 15 30  1  0  0  0  0
 15 14  1  0  0  0  0
 15 76  1  1  0  0  0
 16 17  1  0  0  0  0
 17 28  1  0  0  0  0
 17 18  1  0  0  0  0
 17 77  1  1  0  0  0
 18 19  1  0  0  0  0
 18 27  1  0  0  0  0
 19 20  2  0  0  0  0
 19 78  1  0  0  0  0
 20 21  1  0  0  0  0
 21 22  1  0  0  0  0
 21 27  2  0  0  0  0
 22 23  1  0  0  0  0
 22 24  2  0  0  0  0
 23 79  1  0  0  0  0
 23 80  1  0  0  0  0
 24 25  1  0  0  0  0
 25 26  2  0  0  0  0
 25 81  1  0  0  0  0
 26 27  1  0  0  0  0
 28 29  1  0  0  0  0
 28 30  1  0  0  0  0
 28 82  1  6  0  0  0
 29 83  1  0  0  0  0
 30 31  1  0  0  0  0
 30 84  1  6  0  0  0
 31 32  1  0  0  0  0
 32 33  2  0  0  0  0
 32 34  1  0  0  0  0
 32 35  1  0  0  0  0
 34 85  1  0  0  0  0
 35 86  1  0  0  0  0
 36 37  1  0  0  0  0
 36 38  1  0  0  0  0
 36 87  1  6  0  0  0
 37 88  1  0  0  0  0
 38 39  2  0  0  0  0
 38 40  1  0  0  0  0
 40 41  1  0  0  0  0
 40 89  1  0  0  0  0
 41 42  1  0  0  0  0
 41 90  1  0  0  0  0
 41 91  1  0  0  0  0
 42 43  1  0  0  0  0
 42 92  1  0  0  0  0
 42 93  1  0  0  0  0
 43 44  2  0  0  0  0
 43 45  1  0  0  0  0
 45 46  1  0  0  0  0
 45 94  1  0  0  0  0
 46 47  1  0  0  0  0
 46 95  1  0  0  0  0
 46 96  1  0  0  0  0
 47 48  1  0  0  0  0
 47 97  1  0  0  0  0
 47 98  1  0  0  0  0
 48 49  1  0  0  0  0
 49 50  2  0  0  0  0
 49 51  1  0  0  0  0
 51 52  2  0  0  0  0
 51 99  1  0  0  0  0
 52 53  1  0  0  0  0
 52100  1  0  0  0  0
 53 54  2  0  0  0  0
 53101  1  0  0  0  0
 54 55  1  0  0  0  0
 54102  1  0  0  0  0
 55 56  1  0  0  0  0
 55 60  2  0  0  0  0
 56 57  2  0  0  0  0
 56103  1  0  0  0  0
 57 58  1  0  0  0  0
 57104  1  0  0  0  0
 58 59  2  0  0  0  0
 58 63  1  0  0  0  0
 59 60  1  0  0  0  0
 59 61  1  0  0  0  0
 60105  1  0  0  0  0
 61 62  1  0  0  0  0
 62 63  1  0  0  0  0
 62106  1  0  0  0  0
 62107  1  0  0  0  0
M  END
$$$$
