CHEBI:16666
 OpenBabel04242415023D

 26 26  0  0  0  0  0  0  0  0999 V2000
    3.6984    0.9941    1.7604 O   0  0  0  0  0  0  0  0  0  0  0  0
    4.8711    0.7801    1.5354 C   0  0  0  0  0  0  0  0  0  0  0  0
    5.7409    1.6361    0.9677 O   0  0  0  0  0  0  0  0  0  0  0  0
    5.5488   -0.5548    1.8304 C   0  0  0  0  0  0  0  0  0  0  0  0
    6.7314   -0.6614    1.5182 O   0  0  0  0  0  0  0  0  0  0  0  0
    4.6753   -1.6285    2.4335 C   0  0  0  0  0  0  0  0  0  0  0  0
    5.4043   -2.9645    2.6898 C   0  0  0  0  0  0  0  0  0  0  0  0
    6.5652   -2.7377    3.6941 C   0  0  0  0  0  0  0  0  0  0  0  0
    6.5792   -1.8249    4.5120 O   0  0  0  0  0  0  0  0  0  0  0  0
    7.5377   -3.6809    3.6752 O   0  0  0  0  0  0  0  0  0  0  0  0
    4.4236   -3.8998    3.4031 C   0  0  0  0  0  0  0  0  0  0  0  0
    3.9741   -5.0562    2.8831 C   0  0  0  0  0  0  0  0  0  0  0  0
    4.3832   -5.5818    1.5387 C   0  0  0  0  0  0  0  0  0  0  0  0
    4.9327   -6.8765    1.7062 O   0  0  0  0  0  0  0  0  0  0  0  0
    5.4317   -4.7390    0.8763 C   0  0  0  0  0  0  0  0  0  0  0  0
    5.8906   -3.5781    1.3765 C   0  0  0  0  0  0  0  0  0  0  0  0
    6.6271    1.2065    0.9055 H   0  0  0  0  0  0  0  0  0  0  0  0
    3.8289   -1.7880    1.7524 H   0  0  0  0  0  0  0  0  0  0  0  0
    4.2754   -1.2244    3.3733 H   0  0  0  0  0  0  0  0  0  0  0  0
    7.3912   -4.3828    3.0123 H   0  0  0  0  0  0  0  0  0  0  0  0
    4.0658   -3.5896    4.3857 H   0  0  0  0  0  0  0  0  0  0  0  0
    3.2576   -5.6548    3.4414 H   0  0  0  0  0  0  0  0  0  0  0  0
    3.5075   -5.6600    0.8865 H   0  0  0  0  0  0  0  0  0  0  0  0
    5.4822   -6.8616    2.5064 H   0  0  0  0  0  0  0  0  0  0  0  0
    5.8166   -5.1080   -0.0721 H   0  0  0  0  0  0  0  0  0  0  0  0
    6.6570   -3.0408    0.8184 H   0  0  0  0  0  0  0  0  0  0  0  0
  1  2  2  0  0  0  0
  2  3  1  0  0  0  0
  2  4  1  0  0  0  0
  3 17  1  0  0  0  0
  4  5  2  0  0  0  0
  4  6  1  0  0  0  0
  6  7  1  0  0  0  0
  6 18  1  0  0  0  0
  6 19  1  0  0  0  0
  7  8  1  0  0  0  0
  7 11  1  0  0  0  0
  7 16  1  0  0  0  0
  8  9  2  0  0  0  0
  8 10  1  0  0  0  0
 10 20  1  0  0  0  0
 11 12  2  0  0  0  0
 11 21  1  0  0  0  0
 12 13  1  0  0  0  0
 12 22  1  0  0  0  0
 13 14  1  0  0  0  0
 13 15  1  0  0  0  0
 13 23  1  0  0  0  0
 14 24  1  0  0  0  0
 15 16  2  0  0  0  0
 15 25  1  0  0  0  0
 16 26  1  0  0  0  0
M  END
$$$$
