CHEBI:8489
 OpenBabel04242411143D

 39 41  0  0  0  0  0  0  0  0999 V2000
    4.4494    2.5573   -0.4919 C   0  0  0  0  0  0  0  0  0  0  0  0
    5.6324    1.6006   -0.5012 C   0  0  0  0  0  0  0  0  0  0  0  0
    6.3460    1.6204   -1.8539 C   0  0  0  0  0  0  0  0  0  0  0  0
    7.5443    0.6780   -1.8967 C   0  0  0  0  0  0  0  0  0  0  0  0
    8.1965    0.6322   -3.2528 C   0  0  0  0  0  0  0  0  0  0  0  0
    8.8557   -0.6260   -3.2495 O   0  0  0  0  0  0  0  0  0  0  0  0
    8.0362   -1.5102   -2.4520 C   0  0  0  0  0  0  0  0  0  0  0  0
    7.1324   -2.3842   -3.3463 C   0  0  0  0  0  0  0  0  0  0  0  0
    7.8082   -3.3245   -4.2061 N   0  0  0  0  0  0  0  0  0  0  0  0
    7.6125   -4.6708   -4.2684 C   0  0  0  0  0  0  0  0  0  0  0  0
    8.3235   -5.1745   -5.2504 N   0  0  0  0  0  0  0  0  0  0  0  0
    8.9230   -4.0737   -5.7900 C   0  0  0  0  0  0  0  0  0  0  0  0
    8.6160   -2.9158   -5.2021 N   0  0  0  0  0  0  0  0  0  0  0  0
    8.9434   -2.3267   -1.5256 C   0  0  0  0  0  0  0  0  0  0  0  0
   10.2748   -2.5759   -1.9354 C   0  0  0  0  0  0  0  0  0  0  0  0
   11.1712   -3.2904   -1.1369 C   0  0  0  0  0  0  0  0  0  0  0  0
   10.7554   -3.7744    0.0950 C   0  0  0  0  0  0  0  0  0  0  0  0
   11.8585   -4.6364    1.0939 Cl  0  0  0  0  0  0  0  0  0  0  0  0
    9.4456   -3.5758    0.5174 C   0  0  0  0  0  0  0  0  0  0  0  0
    8.5396   -2.8746   -0.2927 C   0  0  0  0  0  0  0  0  0  0  0  0
    6.9176   -2.7812    0.3006 Cl  0  0  0  0  0  0  0  0  0  0  0  0
    7.1387   -0.6734   -1.6822 O   0  0  0  0  0  0  0  0  0  0  0  0
    3.9426    2.5266    0.4776 H   0  0  0  0  0  0  0  0  0  0  0  0
    3.7212    2.2881   -1.2641 H   0  0  0  0  0  0  0  0  0  0  0  0
    4.7760    3.5864   -0.6730 H   0  0  0  0  0  0  0  0  0  0  0  0
    5.2730    0.5896   -0.2776 H   0  0  0  0  0  0  0  0  0  0  0  0
    6.3319    1.8816    0.2942 H   0  0  0  0  0  0  0  0  0  0  0  0
    6.6748    2.6403   -2.0860 H   0  0  0  0  0  0  0  0  0  0  0  0
    5.6229    1.3250   -2.6254 H   0  0  0  0  0  0  0  0  0  0  0  0
    8.2756    0.9314   -1.1198 H   0  0  0  0  0  0  0  0  0  0  0  0
    8.9136    1.4417   -3.4125 H   0  0  0  0  0  0  0  0  0  0  0  0
    7.4697    0.6334   -4.0725 H   0  0  0  0  0  0  0  0  0  0  0  0
    6.5267   -1.7488   -4.0049 H   0  0  0  0  0  0  0  0  0  0  0  0
    6.4223   -2.9503   -2.7309 H   0  0  0  0  0  0  0  0  0  0  0  0
    6.9516   -5.2157   -3.6083 H   0  0  0  0  0  0  0  0  0  0  0  0
    9.5937   -4.1151   -6.6388 H   0  0  0  0  0  0  0  0  0  0  0  0
   10.6288   -2.2092   -2.9006 H   0  0  0  0  0  0  0  0  0  0  0  0
   12.1871   -3.4590   -1.4858 H   0  0  0  0  0  0  0  0  0  0  0  0
    9.1255   -3.9740    1.4775 H   0  0  0  0  0  0  0  0  0  0  0  0
  1  2  1  0  0  0  0
  1 23  1  0  0  0  0
  1 24  1  0  0  0  0
  1 25  1  0  0  0  0
  2  3  1  0  0  0  0
  2 26  1  0  0  0  0
  2 27  1  0  0  0  0
  3  4  1  0  0  0  0
  3 28  1  0  0  0  0
  3 29  1  0  0  0  0
  4  5  1  0  0  0  0
  4 22  1  0  0  0  0
  4 30  1  0  0  0  0
  5  6  1  0  0  0  0
  5 31  1  0  0  0  0
  5 32  1  0  0  0  0
  6  7  1  0  0  0  0
  7  8  1  0  0  0  0
  7 14  1  0  0  0  0
  7 22  1  0  0  0  0
  8  9  1  0  0  0  0
  8 33  1  0  0  0  0
  8 34  1  0  0  0  0
  9 10  1  0  0  0  0
  9 13  1  0  0  0  0
 10 11  2  0  0  0  0
 10 35  1  0  0  0  0
 11 12  1  0  0  0  0
 12 13  2  0  0  0  0
 12 36  1  0  0  0  0
 14 15  1  0  0  0  0
 14 20  2  0  0  0  0
 15 16  2  0  0  0  0
 15 37  1  0  0  0  0
 16 17  1  0  0  0  0
 16 38  1  0  0  0  0
 17 18  1  0  0  0  0
 17 19  2  0  0  0  0
 19 20  1  0  0  0  0
 19 39  1  0  0  0  0
 20 21  1  0  0  0  0
M  END
$$$$
