CHEBI:5981
 OpenBabel04242411063D

 37 39  0  0  1  0  0  0  0  0999 V2000
    1.0458   -0.5461   -0.2473 C   0  0  0  0  0  0  0  0  0  0  0  0
    2.1514    0.2009   -0.3351 C   0  0  0  0  0  0  0  0  0  0  0  0
    2.5869    1.1066    0.7618 C   0  0  0  0  0  0  0  0  0  0  0  0
    1.9171    1.4844    1.7037 O   0  0  0  0  0  0  0  0  0  0  0  0
    3.8827    1.4547    0.5075 O   0  0  0  0  0  0  0  0  0  0  0  0
    4.3931    0.6357   -0.5578 C   0  0  2  0  0  0  0  0  0  0  0  0
    5.0785   -0.5901    0.0560 C   0  0  0  0  0  0  0  0  0  0  0  0
    5.3962   -1.7179   -0.9506 C   0  0  1  0  0  0  0  0  0  0  0  0
    5.8394   -2.9482   -0.1170 C   0  0  0  0  0  0  0  0  0  0  0  0
    6.5608   -1.2829   -1.8799 C   0  0  0  0  0  0  0  0  0  0  0  0
    6.8718   -2.3046   -2.9764 C   0  0  0  0  0  0  0  0  0  0  0  0
    5.6328   -2.6617   -3.7930 C   0  0  0  0  0  0  0  0  0  0  0  0
    4.4735   -3.0500   -2.9035 C   0  0  0  0  0  0  0  0  0  0  0  0
    3.8114   -4.2047   -3.0813 C   0  0  0  0  0  0  0  0  0  0  0  0
    4.1258   -2.0765   -1.7813 C   0  0  2  0  0  0  0  0  0  0  0  0
    3.4102   -0.8468   -2.3774 C   0  0  0  0  0  0  0  0  0  0  0  0
    3.1800    0.3081   -1.4082 C   0  0  2  0  0  0  0  0  0  0  0  0
    0.4117   -0.4966    0.6355 H   0  0  0  0  0  0  0  0  0  0  0  0
    0.7376   -1.2135   -1.0438 H   0  0  0  0  0  0  0  0  0  0  0  0
    5.1132    1.2306   -1.1303 H   0  0  0  0  0  0  0  0  0  0  0  0
    4.4479   -0.9904    0.8625 H   0  0  0  0  0  0  0  0  0  0  0  0
    5.9942   -0.2608    0.5656 H   0  0  0  0  0  0  0  0  0  0  0  0
    6.7307   -2.7175    0.4776 H   0  0  0  0  0  0  0  0  0  0  0  0
    6.0724   -3.8186   -0.7371 H   0  0  0  0  0  0  0  0  0  0  0  0
    5.0495   -3.2545    0.5792 H   0  0  0  0  0  0  0  0  0  0  0  0
    6.3250   -0.3271   -2.3627 H   0  0  0  0  0  0  0  0  0  0  0  0
    7.4687   -1.1100   -1.2882 H   0  0  0  0  0  0  0  0  0  0  0  0
    7.3001   -3.2121   -2.5349 H   0  0  0  0  0  0  0  0  0  0  0  0
    7.6418   -1.8971   -3.6423 H   0  0  0  0  0  0  0  0  0  0  0  0
    5.8878   -3.4686   -4.4906 H   0  0  0  0  0  0  0  0  0  0  0  0
    5.3436   -1.8039   -4.4115 H   0  0  0  0  0  0  0  0  0  0  0  0
    4.0777   -4.8936   -3.8782 H   0  0  0  0  0  0  0  0  0  0  0  0
    2.9863   -4.4954   -2.4387 H   0  0  0  0  0  0  0  0  0  0  0  0
    3.4096   -2.5593   -1.1007 H   0  0  0  0  0  0  0  0  0  0  0  0
    2.4536   -1.1599   -2.8168 H   0  0  0  0  0  0  0  0  0  0  0  0
    3.9976   -0.4469   -3.2135 H   0  0  0  0  0  0  0  0  0  0  0  0
    2.9087    1.1947   -1.9997 H   0  0  0  0  0  0  0  0  0  0  0  0
  1  2  2  0  0  0  0
  1 18  1  0  0  0  0
  1 19  1  0  0  0  0
  2  3  1  0  0  0  0
  2 17  1  0  0  0  0
  3  5  1  0  0  0  0
  3  4  2  0  0  0  0
  5  6  1  0  0  0  0
  6  7  1  0  0  0  0
  6 17  1  0  0  0  0
  6 20  1  1  0  0  0
  7  8  1  0  0  0  0
  7 21  1  0  0  0  0
  7 22  1  0  0  0  0
  8 10  1  0  0  0  0
  8 15  1  0  0  0  0
  8  9  1  6  0  0  0
  9 23  1  0  0  0  0
  9 24  1  0  0  0  0
  9 25  1  0  0  0  0
 10 11  1  0  0  0  0
 10 26  1  0  0  0  0
 10 27  1  0  0  0  0
 11 12  1  0  0  0  0
 11 28  1  0  0  0  0
 11 29  1  0  0  0  0
 12 13  1  0  0  0  0
 12 30  1  0  0  0  0
 12 31  1  0  0  0  0
 13 15  1  0  0  0  0
 13 14  2  0  0  0  0
 14 32  1  0  0  0  0
 14 33  1  0  0  0  0
 15 16  1  0  0  0  0
 15 34  1  1  0  0  0
 16 17  1  0  0  0  0
 16 35  1  0  0  0  0
 16 36  1  0  0  0  0
 17 37  1  1  0  0  0
M  END
$$$$
