CHEBI:16357
 OpenBabel04242414153D

 20 20  0  0  1  0  0  0  0  0999 V2000
    3.3555    2.0198   -0.6135 N   0  0  0  0  0  0  0  0  0  0  0  0
    2.5264    0.8696   -0.1168 C   0  0  1  0  0  0  0  0  0  0  0  0
    2.2529    0.8673    1.3923 C   0  0  0  0  0  0  0  0  0  0  0  0
    1.5142    2.0303    1.8488 N   0  0  0  0  0  0  0  0  0  0  0  0
    0.2820    2.0504    2.4312 C   0  0  0  0  0  0  0  0  0  0  0  0
    0.0001    3.3731    2.6784 C   0  0  0  0  0  0  0  0  0  0  0  0
    1.1260    4.0728    2.2087 C   0  0  0  0  0  0  0  0  0  0  0  0
    2.0566    3.2584    1.7013 N   0  0  0  0  0  0  0  0  0  0  0  0
    1.2009    0.8527   -0.8848 C   0  0  0  0  0  0  0  0  0  0  0  0
    0.2478    0.1376   -0.6165 O   0  0  0  0  0  0  0  0  0  0  0  0
    1.2279    1.7058   -1.9406 O   0  0  0  0  0  0  0  0  0  0  0  0
    4.3130    1.8845   -0.2748 H   0  0  0  0  0  0  0  0  0  0  0  0
    3.0505    2.8489   -0.0641 H   0  0  0  0  0  0  0  0  0  0  0  0
    3.0568   -0.0482   -0.3958 H   0  0  0  0  0  0  0  0  0  0  0  0
    3.1934    0.8515    1.9558 H   0  0  0  0  0  0  0  0  0  0  0  0
    1.6797   -0.0217    1.6804 H   0  0  0  0  0  0  0  0  0  0  0  0
   -0.2868    1.1471    2.6061 H   0  0  0  0  0  0  0  0  0  0  0  0
   -0.8961    3.7759    3.1283 H   0  0  0  0  0  0  0  0  0  0  0  0
    1.3042    5.1408    2.2135 H   0  0  0  0  0  0  0  0  0  0  0  0
    2.1152    2.1482   -1.9053 H   0  0  0  0  0  0  0  0  0  0  0  0
  1  2  1  0  0  0  0
  1 12  1  0  0  0  0
  1 13  1  0  0  0  0
  2  3  1  0  0  0  0
  2  9  1  0  0  0  0
  2 14  1  6  0  0  0
  3  4  1  0  0  0  0
  3 15  1  0  0  0  0
  3 16  1  0  0  0  0
  4  5  1  0  0  0  0
  4  8  1  0  0  0  0
  5  6  2  0  0  0  0
  5 17  1  0  0  0  0
  6  7  1  0  0  0  0
  6 18  1  0  0  0  0
  7  8  2  0  0  0  0
  7 19  1  0  0  0  0
  9 10  2  0  0  0  0
  9 11  1  0  0  0  0
 11 20  1  0  0  0  0
M  END
$$$$
