CHEBI:3082
 OpenBabel04242410433D

 51 52  0  0  0  0  0  0  0  0999 V2000
   16.1318    8.3462   10.8822 C   0  0  0  0  0  0  0  0  0  0  0  0
   15.1019    7.5937   10.0360 C   0  0  0  0  0  0  0  0  0  0  0  0
   13.7554    7.5778   10.7631 C   0  0  0  0  0  0  0  0  0  0  0  0
   15.0148    8.2490    8.7262 N   0  0  0  0  0  0  0  0  0  0  0  0
   14.1835    7.5145    7.7610 C   0  0  0  0  0  0  0  0  0  0  0  0
   14.3181    8.1423    6.3570 C   0  0  0  0  0  0  0  0  0  0  0  0
   15.6591    7.9527    5.8755 O   0  0  0  0  0  0  0  0  0  0  0  0
   13.3184    7.5257    5.3699 C   0  0  0  0  0  0  0  0  0  0  0  0
   13.5474    6.1138    5.2719 O   0  0  0  0  0  0  0  0  0  0  0  0
   13.8515    5.5982    4.0449 C   0  0  0  0  0  0  0  0  0  0  0  0
   14.5084    6.2750    3.0209 C   0  0  0  0  0  0  0  0  0  0  0  0
   14.7675    5.6310    1.8055 C   0  0  0  0  0  0  0  0  0  0  0  0
   14.4175    4.2895    1.6067 C   0  0  0  0  0  0  0  0  0  0  0  0
   14.6520    3.5768    0.2886 C   0  0  0  0  0  0  0  0  0  0  0  0
   15.9739    3.9091   -0.4133 C   0  0  0  0  0  0  0  0  0  0  0  0
   15.8502    5.1534   -1.1033 O   0  0  0  0  0  0  0  0  0  0  0  0
   17.0889    5.5904   -1.6519 C   0  0  0  0  0  0  0  0  0  0  0  0
   16.8846    6.9690   -2.1924 C   0  0  0  0  0  0  0  0  0  0  0  0
   16.7886    8.1448   -1.2526 C   0  0  0  0  0  0  0  0  0  0  0  0
   17.9894    7.9935   -2.1453 C   0  0  0  0  0  0  0  0  0  0  0  0
   13.7740    3.6126    2.6520 C   0  0  0  0  0  0  0  0  0  0  0  0
   13.5042    4.2603    3.8611 C   0  0  0  0  0  0  0  0  0  0  0  0
   16.2383    7.8792   11.8675 H   0  0  0  0  0  0  0  0  0  0  0  0
   15.8393    9.3912   11.0363 H   0  0  0  0  0  0  0  0  0  0  0  0
   17.1180    8.3364   10.4049 H   0  0  0  0  0  0  0  0  0  0  0  0
   15.4573    6.5630    9.9139 H   0  0  0  0  0  0  0  0  0  0  0  0
   13.3313    8.5852   10.8417 H   0  0  0  0  0  0  0  0  0  0  0  0
   13.8681    7.1826   11.7787 H   0  0  0  0  0  0  0  0  0  0  0  0
   13.0277    6.9412   10.2498 H   0  0  0  0  0  0  0  0  0  0  0  0
   15.9493    8.3490    8.3200 H   0  0  0  0  0  0  0  0  0  0  0  0
   13.1336    7.5509    8.0684 H   0  0  0  0  0  0  0  0  0  0  0  0
   14.5096    6.4681    7.7260 H   0  0  0  0  0  0  0  0  0  0  0  0
   14.1403    9.2225    6.4120 H   0  0  0  0  0  0  0  0  0  0  0  0
   15.7561    6.9948    5.7143 H   0  0  0  0  0  0  0  0  0  0  0  0
   13.3594    8.0446    4.4075 H   0  0  0  0  0  0  0  0  0  0  0  0
   12.2987    7.6598    5.7492 H   0  0  0  0  0  0  0  0  0  0  0  0
   14.8444    7.3010    3.1321 H   0  0  0  0  0  0  0  0  0  0  0  0
   15.2468    6.2031    1.0144 H   0  0  0  0  0  0  0  0  0  0  0  0
   13.8061    3.8042   -0.3713 H   0  0  0  0  0  0  0  0  0  0  0  0
   14.6467    2.4960    0.4781 H   0  0  0  0  0  0  0  0  0  0  0  0
   16.1927    3.1335   -1.1562 H   0  0  0  0  0  0  0  0  0  0  0  0
   16.7985    3.9478    0.3084 H   0  0  0  0  0  0  0  0  0  0  0  0
   17.3913    4.9134   -2.4581 H   0  0  0  0  0  0  0  0  0  0  0  0
   17.8638    5.5868   -0.8763 H   0  0  0  0  0  0  0  0  0  0  0  0
   16.2243    6.9663   -3.0524 H   0  0  0  0  0  0  0  0  0  0  0  0
   16.9142    7.9678   -0.1905 H   0  0  0  0  0  0  0  0  0  0  0  0
   16.0671    8.9187   -1.4888 H   0  0  0  0  0  0  0  0  0  0  0  0
   18.9318    7.7281   -1.6803 H   0  0  0  0  0  0  0  0  0  0  0  0
   18.0850    8.6759   -2.9823 H   0  0  0  0  0  0  0  0  0  0  0  0
   13.4716    2.5747    2.5334 H   0  0  0  0  0  0  0  0  0  0  0  0
   13.0060    3.7173    4.6606 H   0  0  0  0  0  0  0  0  0  0  0  0
  1  2  1  0  0  0  0
  1 23  1  0  0  0  0
  1 24  1  0  0  0  0
  1 25  1  0  0  0  0
  2  3  1  0  0  0  0
  2  4  1  0  0  0  0
  2 26  1  0  0  0  0
  3 27  1  0  0  0  0
  3 28  1  0  0  0  0
  3 29  1  0  0  0  0
  4  5  1  0  0  0  0
  4 30  1  0  0  0  0
  5  6  1  0  0  0  0
  5 31  1  0  0  0  0
  5 32  1  0  0  0  0
  6  7  1  0  0  0  0
  6  8  1  0  0  0  0
  6 33  1  0  0  0  0
  7 34  1  0  0  0  0
  8  9  1  0  0  0  0
  8 35  1  0  0  0  0
  8 36  1  0  0  0  0
  9 10  1  0  0  0  0
 10 11  1  0  0  0  0
 10 22  2  0  0  0  0
 11 12  2  0  0  0  0
 11 37  1  0  0  0  0
 12 13  1  0  0  0  0
 12 38  1  0  0  0  0
 13 14  1  0  0  0  0
 13 21  2  0  0  0  0
 14 15  1  0  0  0  0
 14 39  1  0  0  0  0
 14 40  1  0  0  0  0
 15 16  1  0  0  0  0
 15 41  1  0  0  0  0
 15 42  1  0  0  0  0
 16 17  1  0  0  0  0
 17 18  1  0  0  0  0
 17 43  1  0  0  0  0
 17 44  1  0  0  0  0
 18 19  1  0  0  0  0
 18 20  1  0  0  0  0
 18 45  1  0  0  0  0
 19 20  1  0  0  0  0
 19 46  1  0  0  0  0
 19 47  1  0  0  0  0
 20 48  1  0  0  0  0
 20 49  1  0  0  0  0
 21 22  1  0  0  0  0
 21 50  1  0  0  0  0
 22 51  1  0  0  0  0
M  END
$$$$
