CHEBI:16597
 OpenBabel04242414523D

 16 16  0  0  0  0  0  0  0  0999 V2000
    1.0556   -0.0287    0.1031 O   0  0  0  0  0  0  0  0  0  0  0  0
    2.5060    0.2979    0.0994 P   0  0  0  0  0  0  0  0  0  0  0  0
    3.2920   -0.1754    1.4102 O   0  0  0  0  0  0  0  0  0  0  0  0
    3.4059   -0.3309   -1.0857 O   0  0  0  0  0  0  0  0  0  0  0  0
    4.4548    0.6003   -1.3590 C   0  0  0  0  0  0  0  0  0  0  0  0
    3.8096    1.9732   -1.1761 C   0  0  0  0  0  0  0  0  0  0  0  0
    4.8278    3.0724   -0.9178 C   0  0  0  0  0  0  0  0  0  0  0  0
    4.1621    4.3282   -0.8045 O   0  0  0  0  0  0  0  0  0  0  0  0
    2.9347    1.8479   -0.0409 O   0  0  0  0  0  0  0  0  0  0  0  0
    2.9934   -1.0622    1.6832 H   0  0  0  0  0  0  0  0  0  0  0  0
    4.8341    0.4546   -2.3738 H   0  0  0  0  0  0  0  0  0  0  0  0
    5.2615    0.4215   -0.6404 H   0  0  0  0  0  0  0  0  0  0  0  0
    3.1686    2.2213   -2.0297 H   0  0  0  0  0  0  0  0  0  0  0  0
    5.5497    3.1437   -1.7365 H   0  0  0  0  0  0  0  0  0  0  0  0
    5.3688    2.9030    0.0190 H   0  0  0  0  0  0  0  0  0  0  0  0
    3.4527    4.2048   -0.1445 H   0  0  0  0  0  0  0  0  0  0  0  0
  1  2  2  0  0  0  0
  2  3  1  0  0  0  0
  2  4  1  0  0  0  0
  2  9  1  0  0  0  0
  3 10  1  0  0  0  0
  4  5  1  0  0  0  0
  5  6  1  0  0  0  0
  5 11  1  0  0  0  0
  5 12  1  0  0  0  0
  6  7  1  0  0  0  0
  6  9  1  0  0  0  0
  6 13  1  0  0  0  0
  7  8  1  0  0  0  0
  7 14  1  0  0  0  0
  7 15  1  0  0  0  0
  8 16  1  0  0  0  0
M  END
$$$$
