CHEBI:15917
 OpenBabel04242413283D

 35 36  0  0  1  0  0  0  0  0999 V2000
    5.7404    1.4292    1.9539 O   0  0  0  0  0  0  0  0  0  0  0  0
    4.5441    1.7085    1.6157 C   0  0  0  0  0  0  0  0  0  0  0  0
    3.9583    2.8219    1.6454 O   0  5  0  0  0  0  0  0  0  0  0  0
    3.7364    0.5223    1.2080 C   0  0  0  0  0  0  0  0  0  0  0  0
    2.3630    0.4096    1.3820 C   0  0  0  0  0  0  0  0  0  0  0  0
    1.7628   -0.8285    1.1878 C   0  0  0  0  0  0  0  0  0  0  0  0
    2.5611   -1.9454    0.9377 C   0  0  0  0  0  0  0  0  0  0  0  0
    3.9063   -1.8225    0.8482 N   0  3  0  0  0  0  0  0  0  0  0  0
    4.8419   -2.9967    0.8311 C   0  0  0  0  0  0  0  0  0  0  0  0
    6.2000   -2.5858    1.0884 O   0  0  0  0  0  0  0  0  0  0  0  0
    6.4520   -2.1173    2.4388 C   0  0  2  0  0  0  0  0  0  0  0  0
    7.8406   -1.4730    2.4904 C   0  0  0  0  0  0  0  0  0  0  0  0
    7.8902   -0.3577    1.5991 O   0  0  0  0  0  0  0  0  0  0  0  0
    6.2466   -3.2601    3.4301 C   0  0  1  0  0  0  0  0  0  0  0  0
    6.4359   -2.8804    4.7924 O   0  0  0  0  0  0  0  0  0  0  0  0
    4.8053   -3.7647    3.2674 C   0  0  2  0  0  0  0  0  0  0  0  0
    4.5888   -4.9242    4.0846 O   0  0  0  0  0  0  0  0  0  0  0  0
    4.5079   -4.1437    1.8135 C   0  0  1  0  0  0  0  0  0  0  0  0
    3.1788   -4.6618    1.7087 O   0  0  0  0  0  0  0  0  0  0  0  0
    4.4429   -0.5837    0.7812 C   0  0  0  0  0  0  0  0  0  0  0  0
    1.7832    1.2812    1.6854 H   0  0  0  0  0  0  0  0  0  0  0  0
    0.6855   -0.9328    1.2878 H   0  0  0  0  0  0  0  0  0  0  0  0
    2.1176   -2.9260    0.8174 H   0  0  0  0  0  0  0  0  0  0  0  0
    4.7857   -3.3632   -0.2011 H   0  0  0  0  0  0  0  0  0  0  0  0
    5.7474   -1.3229    2.7015 H   0  0  0  0  0  0  0  0  0  0  0  0
    8.0932   -1.1230    3.4955 H   0  0  0  0  0  0  0  0  0  0  0  0
    8.6056   -2.1828    2.1606 H   0  0  0  0  0  0  0  0  0  0  0  0
    7.2660    0.3525    1.9030 H   0  0  0  0  0  0  0  0  0  0  0  0
    6.9429   -4.0820    3.2258 H   0  0  0  0  0  0  0  0  0  0  0  0
    6.1376   -1.9610    4.9299 H   0  0  0  0  0  0  0  0  0  0  0  0
    4.0882   -3.0150    3.6234 H   0  0  0  0  0  0  0  0  0  0  0  0
    5.0284   -4.7373    4.9416 H   0  0  0  0  0  0  0  0  0  0  0  0
    5.1650   -4.9867    1.5584 H   0  0  0  0  0  0  0  0  0  0  0  0
    3.0977   -5.3037    2.4503 H   0  0  0  0  0  0  0  0  0  0  0  0
    5.4978   -0.4947    0.5287 H   0  0  0  0  0  0  0  0  0  0  0  0
  1  2  2  0  0  0  0
  2  3  1  0  0  0  0
  2  4  1  0  0  0  0
  4  5  1  0  0  0  0
  4 20  2  0  0  0  0
  5  6  2  0  0  0  0
  5 21  1  0  0  0  0
  6  7  1  0  0  0  0
  6 22  1  0  0  0  0
  7  8  2  0  0  0  0
  7 23  1  0  0  0  0
  8  9  1  0  0  0  0
  8 20  1  0  0  0  0
  9 10  1  0  0  0  0
  9 18  1  0  0  0  0
  9 24  1  0  0  0  0
 10 11  1  0  0  0  0
 11 14  1  0  0  0  0
 11 12  1  0  0  0  0
 11 25  1  1  0  0  0
 12 13  1  0  0  0  0
 12 26  1  0  0  0  0
 12 27  1  0  0  0  0
 13 28  1  0  0  0  0
 14 15  1  0  0  0  0
 14 16  1  0  0  0  0
 14 29  1  6  0  0  0
 15 30  1  0  0  0  0
 16 17  1  0  0  0  0
 16 18  1  0  0  0  0
 16 31  1  1  0  0  0
 17 32  1  0  0  0  0
 18 19  1  0  0  0  0
 18 33  1  6  0  0  0
 19 34  1  0  0  0  0
 20 35  1  0  0  0  0
M  CHG  2   3  -1   8   1
M  END
$$$$
