CHEBI:16002
 OpenBabel04242413363D

 24 23  0  0  1  0  0  0  0  0999 V2000
    8.2925    2.5782   -5.0297 O   0  0  0  0  0  0  0  0  0  0  0  0
    8.4044    2.4117   -3.8251 C   0  0  0  0  0  0  0  0  0  0  0  0
    8.8427    3.3788   -2.9777 O   0  0  0  0  0  0  0  0  0  0  0  0
    8.0891    1.1155   -3.0814 C   0  0  1  0  0  0  0  0  0  0  0  0
    8.0093    1.4124   -1.6755 O   0  0  0  0  0  0  0  0  0  0  0  0
    6.7872    0.4904   -3.6159 C   0  0  1  0  0  0  0  0  0  0  0  0
    5.6900    1.4060   -3.3733 O   0  0  0  0  0  0  0  0  0  0  0  0
    6.3626   -0.8146   -2.9082 C   0  0  2  0  0  0  0  0  0  0  0  0
    5.8363   -0.4939   -1.5964 O   0  0  0  0  0  0  0  0  0  0  0  0
    7.4419   -1.8821   -2.7254 C   0  0  1  0  0  0  0  0  0  0  0  0
    6.9056   -2.9524   -1.9114 O   0  0  0  0  0  0  0  0  0  0  0  0
    7.8397   -2.4767   -4.0660 C   0  0  0  0  0  0  0  0  0  0  0  0
    8.1746   -1.8195   -5.0406 O   0  0  0  0  0  0  0  0  0  0  0  0
    7.7841   -3.8301   -4.0550 O   0  0  0  0  0  0  0  0  0  0  0  0
    8.8241    3.0103   -2.0621 H   0  0  0  0  0  0  0  0  0  0  0  0
    8.9468    0.4520   -3.2272 H   0  0  0  0  0  0  0  0  0  0  0  0
    7.0541    1.4642   -1.4597 H   0  0  0  0  0  0  0  0  0  0  0  0
    6.8595    0.3272   -4.6967 H   0  0  0  0  0  0  0  0  0  0  0  0
    5.4658    1.8086   -4.2378 H   0  0  0  0  0  0  0  0  0  0  0  0
    5.5083   -1.2423   -3.4490 H   0  0  0  0  0  0  0  0  0  0  0  0
    5.1775    0.2145   -1.7667 H   0  0  0  0  0  0  0  0  0  0  0  0
    8.3294   -1.5172   -2.2026 H   0  0  0  0  0  0  0  0  0  0  0  0
    6.3505   -2.4896   -1.2439 H   0  0  0  0  0  0  0  0  0  0  0  0
    7.4626   -4.1029   -3.1591 H   0  0  0  0  0  0  0  0  0  0  0  0
  1  2  2  0  0  0  0
  2  3  1  0  0  0  0
  2  4  1  0  0  0  0
  3 15  1  0  0  0  0
  4  5  1  0  0  0  0
  4  6  1  0  0  0  0
  4 16  1  6  0  0  0
  5 17  1  0  0  0  0
  6  7  1  0  0  0  0
  6 18  1  1  0  0  0
  7 19  1  0  0  0  0
  8 10  1  0  0  0  0
  8  9  1  0  0  0  0
  8  6  1  0  0  0  0
  8 20  1  6  0  0  0
  9 21  1  0  0  0  0
 10 11  1  0  0  0  0
 10 12  1  0  0  0  0
 10 22  1  1  0  0  0
 11 23  1  0  0  0  0
 12 13  2  0  0  0  0
 12 14  1  0  0  0  0
 14 24  1  0  0  0  0
M  END
$$$$
