CHEBI:15536
 OpenBabel04242412403D

 98100  0  0  1  0  0  0  0  0999 V2000
   30.0955  -18.0658   -1.7246 C   0  0  0  0  0  0  0  0  0  0  0  0
   30.4569  -16.6897   -2.2509 C   0  0  0  0  0  0  0  0  0  0  0  0
   31.7010  -16.6330   -3.1518 C   0  0  0  0  0  0  0  0  0  0  0  0
   31.8048  -17.7197   -4.2256 C   0  0  0  0  0  0  0  0  0  0  0  0
   32.6716  -17.3065   -5.4108 C   0  0  0  0  0  0  0  0  0  0  0  0
   32.5645  -16.2275   -5.9871 O   0  0  0  0  0  0  0  0  0  0  0  0
   33.8721  -18.4844   -5.9903 S   0  0  0  0  0  0  0  0  0  0  0  0
   32.7207  -19.7786   -6.5169 C   0  0  0  0  0  0  0  0  0  0  0  0
   33.3304  -21.1229   -6.9487 C   0  0  0  0  0  0  0  0  0  0  0  0
   32.4628  -22.2756   -6.6292 N   0  0  0  0  0  0  0  0  0  0  0  0
   32.2573  -22.6454   -5.3200 C   0  0  0  0  0  0  0  0  0  0  0  0
   32.6753  -21.9467   -4.3896 O   0  0  0  0  0  0  0  0  0  0  0  0
   31.4207  -23.8732   -4.9796 C   0  0  0  0  0  0  0  0  0  0  0  0
   30.9412  -24.8517   -6.0307 C   0  0  0  0  0  0  0  0  0  0  0  0
   29.5211  -24.6799   -6.3276 N   0  0  0  0  0  0  0  0  0  0  0  0
   29.0421  -24.9455   -7.5991 C   0  0  0  0  0  0  0  0  0  0  0  0
   29.8117  -25.1312   -8.5345 O   0  0  0  0  0  0  0  0  0  0  0  0
   27.4983  -24.7993   -7.7340 C   0  0  2  0  0  0  0  0  0  0  0  0
   26.8495  -24.7772   -6.4516 O   0  0  0  0  0  0  0  0  0  0  0  0
   26.7604  -25.7799   -8.6956 C   0  0  0  0  0  0  0  0  0  0  0  0
   27.6207  -26.2201   -9.8955 C   0  0  0  0  0  0  0  0  0  0  0  0
   26.3327  -27.0461   -7.9249 C   0  0  0  0  0  0  0  0  0  0  0  0
   25.4794  -25.0666   -9.2350 C   0  0  0  0  0  0  0  0  0  0  0  0
   25.7854  -24.2223  -10.3376 O   0  0  0  0  0  0  0  0  0  0  0  0
   25.2856  -22.7081  -10.4554 P   0  0  0  0  0  0  0  0  0  0  0  0
   25.2734  -22.1177  -11.8244 O   0  0  0  0  0  0  0  0  0  0  0  0
   23.8291  -22.7127   -9.7837 O   0  0  0  0  0  0  0  0  0  0  0  0
   26.1128  -21.8829   -9.3960 O   0  0  0  0  0  0  0  0  0  0  0  0
   27.6579  -21.5636   -9.4572 P   0  0  0  0  0  0  0  0  0  0  0  0
   28.5537  -22.6152  -10.0095 O   0  0  0  0  0  0  0  0  0  0  0  0
   27.8022  -20.1611  -10.2002 O   0  0  0  0  0  0  0  0  0  0  0  0
   27.9369  -21.2002   -7.9149 O   0  0  0  0  0  0  0  0  0  0  0  0
   29.2766  -21.1925   -7.4831 C   0  0  0  0  0  0  0  0  0  0  0  0
   29.3892  -20.4594   -6.1580 C   0  0  1  0  0  0  0  0  0  0  0  0
   29.2216  -19.0490   -6.3940 O   0  0  0  0  0  0  0  0  0  0  0  0
   28.2326  -18.5506   -5.4657 C   0  0  1  0  0  0  0  0  0  0  0  0
   27.6393  -17.3715   -6.0463 N   0  0  0  0  0  0  0  0  0  0  0  0
   26.4620  -17.2353   -6.7237 C   0  0  0  0  0  0  0  0  0  0  0  0
   26.3087  -16.0184   -7.2128 N   0  0  0  0  0  0  0  0  0  0  0  0
   27.4397  -15.3281   -6.8165 C   0  0  0  0  0  0  0  0  0  0  0  0
   27.9017  -14.0176   -7.0415 C   0  0  0  0  0  0  0  0  0  0  0  0
   27.2217  -13.0733   -7.8044 N   0  0  0  0  0  0  0  0  0  0  0  0
   29.1021  -13.6537   -6.5366 N   0  0  0  0  0  0  0  0  0  0  0  0
   29.7966  -14.5614   -5.8211 C   0  0  0  0  0  0  0  0  0  0  0  0
   29.4469  -15.8271   -5.5242 N   0  0  0  0  0  0  0  0  0  0  0  0
   28.2647  -16.1488   -6.0701 C   0  0  0  0  0  0  0  0  0  0  0  0
   27.3744  -19.7682   -5.1038 C   0  0  2  0  0  0  0  0  0  0  0  0
   26.6581  -19.5987   -3.8881 O   0  0  0  0  0  0  0  0  0  0  0  0
   28.4516  -20.8504   -5.0203 C   0  0  2  0  0  0  0  0  0  0  0  0
   29.2177  -20.6759   -3.8234 O   0  0  0  0  0  0  0  0  0  0  0  0
   29.0940  -21.5775   -2.5156 P   0  0  0  0  0  0  0  0  0  0  0  0
   28.7297  -20.9035   -1.2454 O   0  0  0  0  0  0  0  0  0  0  0  0
   28.1009  -22.7626   -2.9209 O   0  0  0  0  0  0  0  0  0  0  0  0
   30.4852  -22.3489   -2.4757 O   0  0  0  0  0  0  0  0  0  0  0  0
   29.4845  -17.9819   -0.8191 H   0  0  0  0  0  0  0  0  0  0  0  0
   30.9768  -18.6679   -1.4897 H   0  0  0  0  0  0  0  0  0  0  0  0
   29.4930  -18.5968   -2.4619 H   0  0  0  0  0  0  0  0  0  0  0  0
   30.6261  -16.0234   -1.3963 H   0  0  0  0  0  0  0  0  0  0  0  0
   29.5881  -16.2834   -2.7826 H   0  0  0  0  0  0  0  0  0  0  0  0
   32.5925  -16.6995   -2.5172 H   0  0  0  0  0  0  0  0  0  0  0  0
   31.7331  -15.6357   -3.6041 H   0  0  0  0  0  0  0  0  0  0  0  0
   32.1806  -18.6394   -3.7659 H   0  0  0  0  0  0  0  0  0  0  0  0
   30.8217  -17.9488   -4.6327 H   0  0  0  0  0  0  0  0  0  0  0  0
   32.0748  -19.3913   -7.3130 H   0  0  0  0  0  0  0  0  0  0  0  0
   32.1145  -19.9367   -5.6350 H   0  0  0  0  0  0  0  0  0  0  0  0
   34.2969  -21.3021   -6.4663 H   0  0  0  0  0  0  0  0  0  0  0  0
   33.4838  -21.1295   -8.0342 H   0  0  0  0  0  0  0  0  0  0  0  0
   32.2794  -22.9375   -7.3759 H   0  0  0  0  0  0  0  0  0  0  0  0
   30.5438  -23.5030   -4.4461 H   0  0  0  0  0  0  0  0  0  0  0  0
   32.0345  -24.4323   -4.2616 H   0  0  0  0  0  0  0  0  0  0  0  0
   31.0168  -25.8699   -5.6303 H   0  0  0  0  0  0  0  0  0  0  0  0
   31.5425  -24.8227   -6.9411 H   0  0  0  0  0  0  0  0  0  0  0  0
   28.8497  -24.8633   -5.5843 H   0  0  0  0  0  0  0  0  0  0  0  0
   27.3638  -23.7929   -8.1233 H   0  0  0  0  0  0  0  0  0  0  0  0
   26.8838  -23.8627   -6.1219 H   0  0  0  0  0  0  0  0  0  0  0  0
   28.0488  -25.3633  -10.4261 H   0  0  0  0  0  0  0  0  0  0  0  0
   27.0241  -26.7886  -10.6179 H   0  0  0  0  0  0  0  0  0  0  0  0
   28.4404  -26.8751   -9.5819 H   0  0  0  0  0  0  0  0  0  0  0  0
   25.9631  -27.8187   -8.6089 H   0  0  0  0  0  0  0  0  0  0  0  0
   25.5293  -26.8359   -7.2103 H   0  0  0  0  0  0  0  0  0  0  0  0
   27.1773  -27.4718   -7.3714 H   0  0  0  0  0  0  0  0  0  0  0  0
   24.9724  -24.5106   -8.4390 H   0  0  0  0  0  0  0  0  0  0  0  0
   24.7692  -25.8132   -9.6099 H   0  0  0  0  0  0  0  0  0  0  0  0
   23.3453  -21.8952  -10.0064 H   0  0  0  0  0  0  0  0  0  0  0  0
   28.0623  -20.2740  -11.1365 H   0  0  0  0  0  0  0  0  0  0  0  0
   29.9056  -20.7079   -8.2389 H   0  0  0  0  0  0  0  0  0  0  0  0
   29.6140  -22.2230   -7.3681 H   0  0  0  0  0  0  0  0  0  0  0  0
   30.3989  -20.6045   -5.8087 H   0  0  0  0  0  0  0  0  0  0  0  0
   28.7385  -18.2067   -4.5593 H   0  0  0  0  0  0  0  0  0  0  0  0
   25.7532  -18.0424   -6.8491 H   0  0  0  0  0  0  0  0  0  0  0  0
   26.5900  -13.4970   -8.4734 H   0  0  0  0  0  0  0  0  0  0  0  0
   27.8684  -12.3770   -8.1558 H   0  0  0  0  0  0  0  0  0  0  0  0
   30.7609  -14.2314   -5.4436 H   0  0  0  0  0  0  0  0  0  0  0  0
   26.6628  -20.0118   -5.8989 H   0  0  0  0  0  0  0  0  0  0  0  0
   26.5073  -20.4677   -3.4767 H   0  0  0  0  0  0  0  0  0  0  0  0
   28.0783  -21.8727   -5.1007 H   0  0  0  0  0  0  0  0  0  0  0  0
   27.9532  -23.3215   -2.1319 H   0  0  0  0  0  0  0  0  0  0  0  0
   31.2642  -21.7625   -2.3760 H   0  0  0  0  0  0  0  0  0  0  0  0
  1  2  1  0  0  0  0
  1 55  1  0  0  0  0
  1 56  1  0  0  0  0
  1 57  1  0  0  0  0
  2  3  1  0  0  0  0
  2 58  1  0  0  0  0
  2 59  1  0  0  0  0
  3  4  1  0  0  0  0
  3 60  1  0  0  0  0
  3 61  1  0  0  0  0
  4  5  1  0  0  0  0
  4 62  1  0  0  0  0
  4 63  1  0  0  0  0
  5  6  2  0  0  0  0
  5  7  1  0  0  0  0
  7  8  1  0  0  0  0
  8  9  1  0  0  0  0
  8 64  1  0  0  0  0
  8 65  1  0  0  0  0
  9 10  1  0  0  0  0
  9 66  1  0  0  0  0
  9 67  1  0  0  0  0
 10 11  1  0  0  0  0
 10 68  1  0  0  0  0
 11 12  2  0  0  0  0
 11 13  1  0  0  0  0
 13 14  1  0  0  0  0
 13 69  1  0  0  0  0
 13 70  1  0  0  0  0
 14 15  1  0  0  0  0
 14 71  1  0  0  0  0
 14 72  1  0  0  0  0
 15 16  1  0  0  0  0
 15 73  1  0  0  0  0
 16 17  2  0  0  0  0
 18 20  1  0  0  0  0
 18 19  1  0  0  0  0
 18 16  1  0  0  0  0
 18 74  1  6  0  0  0
 19 75  1  0  0  0  0
 20 21  1  0  0  0  0
 20 22  1  0  0  0  0
 20 23  1  0  0  0  0
 21 76  1  0  0  0  0
 21 77  1  0  0  0  0
 21 78  1  0  0  0  0
 22 79  1  0  0  0  0
 22 80  1  0  0  0  0
 22 81  1  0  0  0  0
 23 24  1  0  0  0  0
 23 82  1  0  0  0  0
 23 83  1  0  0  0  0
 24 25  1  0  0  0  0
 25 26  2  0  0  0  0
 25 27  1  0  0  0  0
 25 28  1  0  0  0  0
 27 84  1  0  0  0  0
 28 29  1  0  0  0  0
 29 30  2  0  0  0  0
 29 31  1  0  0  0  0
 29 32  1  0  0  0  0
 31 85  1  0  0  0  0
 32 33  1  0  0  0  0
 33 86  1  0  0  0  0
 33 87  1  0  0  0  0
 34 35  1  0  0  0  0
 34 49  1  0  0  0  0
 34 33  1  0  0  0  0
 34 88  1  1  0  0  0
 35 36  1  0  0  0  0
 36 47  1  0  0  0  0
 36 37  1  0  0  0  0
 36 89  1  1  0  0  0
 37 38  1  0  0  0  0
 37 46  1  0  0  0  0
 38 39  2  0  0  0  0
 38 90  1  0  0  0  0
 39 40  1  0  0  0  0
 40 41  1  0  0  0  0
 40 46  2  0  0  0  0
 41 42  1  0  0  0  0
 41 43  2  0  0  0  0
 42 91  1  0  0  0  0
 42 92  1  0  0  0  0
 43 44  1  0  0  0  0
 44 45  2  0  0  0  0
 44 93  1  0  0  0  0
 45 46  1  0  0  0  0
 47 48  1  0  0  0  0
 47 49  1  0  0  0  0
 47 94  1  6  0  0  0
 48 95  1  0  0  0  0
 49 50  1  0  0  0  0
 49 96  1  6  0  0  0
 50 51  1  0  0  0  0
 51 52  2  0  0  0  0
 51 53  1  0  0  0  0
 51 54  1  0  0  0  0
 53 97  1  0  0  0  0
 54 98  1  0  0  0  0
M  END
$$$$
