CHEBI:5722
 OpenBabel04242411053D

 44 48  0  0  1  0  0  0  0  0999 V2000
   -1.9723   -0.3684    0.2505 O   0  0  0  0  0  0  0  0  0  0  0  0
   -0.7550   -0.3011    0.2162 C   0  0  0  0  0  0  0  0  0  0  0  0
    0.0766   -1.3538    0.4724 O   0  0  0  0  0  0  0  0  0  0  0  0
    1.4276   -0.9553    0.2413 C   0  0  0  0  0  0  0  0  0  0  0  0
    1.4303    0.5557    0.3773 C   0  0  2  0  0  0  0  0  0  0  0  0
    1.6120    0.9474    1.8611 C   0  0  0  0  0  0  0  0  0  0  0  0
    1.6356    2.4359    2.1261 C   0  0  0  0  0  0  0  0  0  0  0  0
    0.7353    2.9931    3.0648 C   0  0  0  0  0  0  0  0  0  0  0  0
    0.7598    4.3580    3.3690 C   0  0  0  0  0  0  0  0  0  0  0  0
    1.6929    5.1402    2.7270 C   0  0  0  0  0  0  0  0  0  0  0  0
    2.5733    4.6115    1.8141 C   0  0  0  0  0  0  0  0  0  0  0  0
    2.5729    3.2692    1.4938 C   0  0  0  0  0  0  0  0  0  0  0  0
    3.4174    5.5491    1.3050 O   0  0  0  0  0  0  0  0  0  0  0  0
    2.9675    6.7267    2.0068 C   0  0  0  0  0  0  0  0  0  0  0  0
    1.8708    6.4757    2.9091 O   0  0  0  0  0  0  0  0  0  0  0  0
    0.0440    0.9186   -0.1599 C   0  0  1  0  0  0  0  0  0  0  0  0
   -0.0345    1.0809   -1.6835 C   0  0  0  0  0  0  0  0  0  0  0  0
    0.8073    2.2159   -2.2167 C   0  0  0  0  0  0  0  0  0  0  0  0
    1.8614    1.9498   -3.1214 C   0  0  0  0  0  0  0  0  0  0  0  0
    2.6564    2.9837   -3.6256 C   0  0  0  0  0  0  0  0  0  0  0  0
    2.3736    4.2673   -3.2152 C   0  0  0  0  0  0  0  0  0  0  0  0
    1.3472    4.5381   -2.3425 C   0  0  0  0  0  0  0  0  0  0  0  0
    0.5466    3.5400   -1.8283 C   0  0  0  0  0  0  0  0  0  0  0  0
    1.2321    5.8660   -2.0726 O   0  0  0  0  0  0  0  0  0  0  0  0
    2.3027    6.3988   -2.8788 C   0  0  0  0  0  0  0  0  0  0  0  0
    3.0354    5.3895   -3.6038 O   0  0  0  0  0  0  0  0  0  0  0  0
    1.7146   -1.2788   -0.7654 H   0  0  0  0  0  0  0  0  0  0  0  0
    2.0836   -1.4534    0.9618 H   0  0  0  0  0  0  0  0  0  0  0  0
    2.2487    0.9872   -0.2070 H   0  0  0  0  0  0  0  0  0  0  0  0
    2.5605    0.5364    2.2320 H   0  0  0  0  0  0  0  0  0  0  0  0
    0.8275    0.4783    2.4692 H   0  0  0  0  0  0  0  0  0  0  0  0
    0.0103    2.3591    3.5727 H   0  0  0  0  0  0  0  0  0  0  0  0
    0.0746    4.7858    4.0921 H   0  0  0  0  0  0  0  0  0  0  0  0
    3.2928    2.8862    0.7788 H   0  0  0  0  0  0  0  0  0  0  0  0
    2.6518    7.4749    1.2708 H   0  0  0  0  0  0  0  0  0  0  0  0
    3.8076    7.1331    2.5822 H   0  0  0  0  0  0  0  0  0  0  0  0
   -0.3734    1.7919    0.3506 H   0  0  0  0  0  0  0  0  0  0  0  0
    0.2455    0.1437   -2.1829 H   0  0  0  0  0  0  0  0  0  0  0  0
   -1.0760    1.2613   -1.9827 H   0  0  0  0  0  0  0  0  0  0  0  0
    2.0665    0.9297   -3.4406 H   0  0  0  0  0  0  0  0  0  0  0  0
    3.4650    2.7856   -4.3200 H   0  0  0  0  0  0  0  0  0  0  0  0
   -0.2592    3.7882   -1.1453 H   0  0  0  0  0  0  0  0  0  0  0  0
    2.9993    6.9366   -2.2256 H   0  0  0  0  0  0  0  0  0  0  0  0
    1.8784    7.1075   -3.5996 H   0  0  0  0  0  0  0  0  0  0  0  0
  1  2  2  0  0  0  0
  2  3  1  0  0  0  0
  2 16  1  0  0  0  0
  3  4  1  0  0  0  0
  4  5  1  0  0  0  0
  4 27  1  0  0  0  0
  4 28  1  0  0  0  0
  5  6  1  0  0  0  0
  5 16  1  0  0  0  0
  5 29  1  6  0  0  0
  6  7  1  0  0  0  0
  6 30  1  0  0  0  0
  6 31  1  0  0  0  0
  7  8  1  0  0  0  0
  7 12  2  0  0  0  0
  8  9  2  0  0  0  0
  8 32  1  0  0  0  0
  9 10  1  0  0  0  0
  9 33  1  0  0  0  0
 10 11  2  0  0  0  0
 10 15  1  0  0  0  0
 11 12  1  0  0  0  0
 11 13  1  0  0  0  0
 12 34  1  0  0  0  0
 13 14  1  0  0  0  0
 14 15  1  0  0  0  0
 14 35  1  0  0  0  0
 14 36  1  0  0  0  0
 16 17  1  0  0  0  0
 16 37  1  1  0  0  0
 17 18  1  0  0  0  0
 17 38  1  0  0  0  0
 17 39  1  0  0  0  0
 18 19  1  0  0  0  0
 18 23  2  0  0  0  0
 19 20  2  0  0  0  0
 19 40  1  0  0  0  0
 20 21  1  0  0  0  0
 20 41  1  0  0  0  0
 21 22  2  0  0  0  0
 21 26  1  0  0  0  0
 22 23  1  0  0  0  0
 22 24  1  0  0  0  0
 23 42  1  0  0  0  0
 24 25  1  0  0  0  0
 25 26  1  0  0  0  0
 25 43  1  0  0  0  0
 25 44  1  0  0  0  0
M  END
$$$$
