CHEBI:17527
 OpenBabel04242416453D

 84 88  0  0  1  0  0  0  0  0999 V2000
    4.1815    0.8350    0.5609 O   0  0  0  0  0  0  0  0  0  0  0  0
    5.3423    0.5008    0.3864 C   0  0  0  0  0  0  0  0  0  0  0  0
    5.8713   -0.0815   -0.7159 O   0  0  0  0  0  0  0  0  0  0  0  0
    4.9557   -0.3402   -1.7823 C   0  0  0  0  0  0  0  0  0  0  0  0
    5.2726    0.4662   -3.0515 C   0  0  1  0  0  0  0  0  0  0  0  0
    4.3017    0.0551   -4.0128 O   0  0  0  0  0  0  0  0  0  0  0  0
    4.5134    0.5823   -5.3149 C   0  0  1  0  0  0  0  0  0  0  0  0
    3.3890    0.1755   -6.1088 O   0  0  0  0  0  0  0  0  0  0  0  0
    3.3630   -1.1363   -6.4145 C   0  0  0  0  0  0  0  0  0  0  0  0
    4.3338   -1.8537   -6.5896 O   0  0  0  0  0  0  0  0  0  0  0  0
    1.9605   -1.6323   -6.3633 C   0  0  0  0  0  0  0  0  0  0  0  0
    1.7399   -2.9987   -6.6095 C   0  0  0  0  0  0  0  0  0  0  0  0
    0.4672   -3.5287   -6.4258 C   0  0  0  0  0  0  0  0  0  0  0  0
    0.1995   -4.8543   -6.6235 O   0  0  0  0  0  0  0  0  0  0  0  0
   -0.5770   -2.7143   -6.0018 C   0  0  0  0  0  0  0  0  0  0  0  0
   -1.8220   -3.2362   -5.7792 O   0  0  0  0  0  0  0  0  0  0  0  0
   -0.3641   -1.3615   -5.7774 C   0  0  0  0  0  0  0  0  0  0  0  0
   -1.3867   -0.5699   -5.3413 O   0  0  0  0  0  0  0  0  0  0  0  0
    0.8946   -0.8072   -5.9617 C   0  0  0  0  0  0  0  0  0  0  0  0
    4.4901    2.1147   -5.3160 C   0  0  2  0  0  0  0  0  0  0  0  0
    5.0818    2.5444   -6.5691 O   0  0  0  0  0  0  0  0  0  0  0  0
    4.2601    3.0730   -7.5030 C   0  0  0  0  0  0  0  0  0  0  0  0
    3.0604    3.2590   -7.3804 O   0  0  0  0  0  0  0  0  0  0  0  0
    5.0287    3.4355   -8.7233 C   0  0  0  0  0  0  0  0  0  0  0  0
    4.3956    4.2506   -9.6795 C   0  0  0  0  0  0  0  0  0  0  0  0
    5.0852    4.6174  -10.8306 C   0  0  0  0  0  0  0  0  0  0  0  0
    4.5255    5.4169  -11.7877 O   0  0  0  0  0  0  0  0  0  0  0  0
    6.3855    4.1728  -11.0388 C   0  0  0  0  0  0  0  0  0  0  0  0
    7.0724    4.5315  -12.1666 O   0  0  0  0  0  0  0  0  0  0  0  0
    7.0056    3.3581  -10.1012 C   0  0  0  0  0  0  0  0  0  0  0  0
    8.2801    2.9188  -10.3145 O   0  0  0  0  0  0  0  0  0  0  0  0
    6.3406    2.9833   -8.9409 C   0  0  0  0  0  0  0  0  0  0  0  0
    5.2835    2.7484   -4.1655 C   0  0  1  0  0  0  0  0  0  0  0  0
    4.6967    4.0523   -3.8677 O   0  0  0  0  0  0  0  0  0  0  0  0
    4.9488    5.0938   -4.6913 C   0  0  0  0  0  0  0  0  0  0  0  0
    5.8137    5.1470   -5.5446 O   0  0  0  0  0  0  0  0  0  0  0  0
    3.9606    6.1691   -4.4069 C   0  0  0  0  0  0  0  0  0  0  0  0
    2.7660    5.8966   -3.7080 C   0  0  0  0  0  0  0  0  0  0  0  0
    1.8535    6.9201   -3.4844 C   0  0  0  0  0  0  0  0  0  0  0  0
    0.6787    6.7128   -2.8178 O   0  0  0  0  0  0  0  0  0  0  0  0
    2.1182    8.2016   -3.9489 C   0  0  0  0  0  0  0  0  0  0  0  0
    1.2251    9.2154   -3.7326 O   0  0  0  0  0  0  0  0  0  0  0  0
    3.2906    8.4679   -4.6460 C   0  0  0  0  0  0  0  0  0  0  0  0
    3.5361    9.7294   -5.1046 O   0  0  0  0  0  0  0  0  0  0  0  0
    4.2172    7.4610   -4.8861 C   0  0  0  0  0  0  0  0  0  0  0  0
    5.1582    1.9778   -2.8401 C   0  0  2  0  0  0  0  0  0  0  0  0
    6.1639    2.4556   -1.9405 O   0  0  0  0  0  0  0  0  0  0  0  0
    6.3706    0.5716    1.4452 C   0  0  0  0  0  0  0  0  0  0  0  0
    5.9633    0.3594    2.7740 C   0  0  0  0  0  0  0  0  0  0  0  0
    6.9145    0.3930    3.7862 C   0  0  0  0  0  0  0  0  0  0  0  0
    6.5899    0.1708    5.0951 O   0  0  0  0  0  0  0  0  0  0  0  0
    8.2469    0.6526    3.4833 C   0  0  0  0  0  0  0  0  0  0  0  0
    9.1907    0.6850    4.4739 O   0  0  0  0  0  0  0  0  0  0  0  0
    8.6393    0.8816    2.1696 C   0  0  0  0  0  0  0  0  0  0  0  0
    9.9469    1.1462    1.8841 O   0  0  0  0  0  0  0  0  0  0  0  0
    7.7114    0.8419    1.1390 C   0  0  0  0  0  0  0  0  0  0  0  0
    3.9070   -0.1906   -1.4940 H   0  0  0  0  0  0  0  0  0  0  0  0
    5.0337   -1.4092   -2.0159 H   0  0  0  0  0  0  0  0  0  0  0  0
    6.2840    0.2050   -3.3888 H   0  0  0  0  0  0  0  0  0  0  0  0
    5.4480    0.1988   -5.7448 H   0  0  0  0  0  0  0  0  0  0  0  0
    2.5713   -3.6315   -6.9089 H   0  0  0  0  0  0  0  0  0  0  0  0
    1.0192   -5.2932   -6.9139 H   0  0  0  0  0  0  0  0  0  0  0  0
   -1.7220   -4.1907   -5.9751 H   0  0  0  0  0  0  0  0  0  0  0  0
   -2.1518   -1.1753   -5.2593 H   0  0  0  0  0  0  0  0  0  0  0  0
    1.0368    0.2499   -5.7551 H   0  0  0  0  0  0  0  0  0  0  0  0
    3.4503    2.4606   -5.2431 H   0  0  0  0  0  0  0  0  0  0  0  0
    3.3783    4.5909   -9.5063 H   0  0  0  0  0  0  0  0  0  0  0  0
    3.6323    5.6694  -11.4929 H   0  0  0  0  0  0  0  0  0  0  0  0
    6.4489    5.1073  -12.6557 H   0  0  0  0  0  0  0  0  0  0  0  0
    8.5410    3.3186  -11.1692 H   0  0  0  0  0  0  0  0  0  0  0  0
    6.8511    2.3480   -8.2235 H   0  0  0  0  0  0  0  0  0  0  0  0
    6.3399    2.8939   -4.4257 H   0  0  0  0  0  0  0  0  0  0  0  0
    2.5492    4.8923   -3.3573 H   0  0  0  0  0  0  0  0  0  0  0  0
    0.6091    5.7681   -2.5907 H   0  0  0  0  0  0  0  0  0  0  0  0
    0.4930    8.7915   -3.2381 H   0  0  0  0  0  0  0  0  0  0  0  0
    2.7592   10.2533   -4.8206 H   0  0  0  0  0  0  0  0  0  0  0  0
    5.1261    7.6822   -5.4401 H   0  0  0  0  0  0  0  0  0  0  0  0
    4.1859    2.2046   -2.3826 H   0  0  0  0  0  0  0  0  0  0  0  0
    6.0343    3.4185   -1.8511 H   0  0  0  0  0  0  0  0  0  0  0  0
    4.9174    0.1591    2.9897 H   0  0  0  0  0  0  0  0  0  0  0  0
    5.6329   -0.0011    5.1508 H   0  0  0  0  0  0  0  0  0  0  0  0
    8.6891    0.4898    5.2923 H   0  0  0  0  0  0  0  0  0  0  0  0
   10.4012    1.1216    2.7507 H   0  0  0  0  0  0  0  0  0  0  0  0
    8.0281    1.0259    0.1159 H   0  0  0  0  0  0  0  0  0  0  0  0
  1  2  2  0  0  0  0
  2  3  1  0  0  0  0
  2 48  1  0  0  0  0
  3  4  1  0  0  0  0
  4  5  1  0  0  0  0
  4 57  1  0  0  0  0
  4 58  1  0  0  0  0
  5  6  1  0  0  0  0
  5 46  1  0  0  0  0
  5 59  1  6  0  0  0
  6  7  1  0  0  0  0
  7 20  1  0  0  0  0
  7  8  1  0  0  0  0
  7 60  1  6  0  0  0
  8  9  1  0  0  0  0
  9 10  2  0  0  0  0
  9 11  1  0  0  0  0
 11 12  1  0  0  0  0
 11 19  2  0  0  0  0
 12 13  2  0  0  0  0
 12 61  1  0  0  0  0
 13 14  1  0  0  0  0
 13 15  1  0  0  0  0
 14 62  1  0  0  0  0
 15 16  1  0  0  0  0
 15 17  2  0  0  0  0
 16 63  1  0  0  0  0
 17 18  1  0  0  0  0
 17 19  1  0  0  0  0
 18 64  1  0  0  0  0
 19 65  1  0  0  0  0
 20 21  1  0  0  0  0
 20 33  1  0  0  0  0
 20 66  1  1  0  0  0
 21 22  1  0  0  0  0
 22 23  2  0  0  0  0
 22 24  1  0  0  0  0
 24 25  1  0  0  0  0
 24 32  2  0  0  0  0
 25 26  2  0  0  0  0
 25 67  1  0  0  0  0
 26 27  1  0  0  0  0
 26 28  1  0  0  0  0
 27 68  1  0  0  0  0
 28 29  1  0  0  0  0
 28 30  2  0  0  0  0
 29 69  1  0  0  0  0
 30 31  1  0  0  0  0
 30 32  1  0  0  0  0
 31 70  1  0  0  0  0
 32 71  1  0  0  0  0
 33 46  1  0  0  0  0
 33 34  1  0  0  0  0
 33 72  1  6  0  0  0
 34 35  1  0  0  0  0
 35 36  2  0  0  0  0
 35 37  1  0  0  0  0
 37 38  1  0  0  0  0
 37 45  2  0  0  0  0
 38 39  2  0  0  0  0
 38 73  1  0  0  0  0
 39 40  1  0  0  0  0
 39 41  1  0  0  0  0
 40 74  1  0  0  0  0
 41 42  1  0  0  0  0
 41 43  2  0  0  0  0
 42 75  1  0  0  0  0
 43 44  1  0  0  0  0
 43 45  1  0  0  0  0
 44 76  1  0  0  0  0
 45 77  1  0  0  0  0
 46 47  1  0  0  0  0
 46 78  1  1  0  0  0
 47 79  1  0  0  0  0
 48 49  1  0  0  0  0
 48 56  2  0  0  0  0
 49 50  2  0  0  0  0
 49 80  1  0  0  0  0
 50 51  1  0  0  0  0
 50 52  1  0  0  0  0
 51 81  1  0  0  0  0
 52 53  1  0  0  0  0
 52 54  2  0  0  0  0
 53 82  1  0  0  0  0
 54 55  1  0  0  0  0
 54 56  1  0  0  0  0
 55 83  1  0  0  0  0
 56 84  1  0  0  0  0
M  END
$$$$
