CHEBI:4884
 OpenBabel04242411013D

 25 25  0  0  0  0  0  0  0  0999 V2000
    1.0467    0.0868   -0.0170 C   0  0  0  0  0  0  0  0  0  0  0  0
    2.3506    0.0868   -0.0170 C   0  0  0  0  0  0  0  0  0  0  0  0
    3.8706    0.0868   -0.0170 C   0  0  0  0  0  0  0  0  0  0  0  0
    4.3561    0.2254    1.3440 O   0  0  0  0  0  0  0  0  0  0  0  0
    4.0700   -0.7266    2.2536 C   0  0  0  0  0  0  0  0  0  0  0  0
    4.5532   -0.3571    3.4618 N   0  0  0  0  0  0  0  0  0  0  0  0
    3.4670   -1.7707    2.0767 O   0  0  0  0  0  0  0  0  0  0  0  0
    4.4453   -1.1681   -0.7027 C   0  0  0  0  0  0  0  0  0  0  0  0
    4.2235   -1.1877   -2.2159 C   0  0  0  0  0  0  0  0  0  0  0  0
    4.7439    0.0794   -2.8832 C   0  0  0  0  0  0  0  0  0  0  0  0
    4.1448    1.3301   -2.2522 C   0  0  0  0  0  0  0  0  0  0  0  0
    4.3707    1.3562   -0.7421 C   0  0  0  0  0  0  0  0  0  0  0  0
   -0.0186    0.0764   -0.0091 H   0  0  0  0  0  0  0  0  0  0  0  0
    4.9392    0.5657    3.5822 H   0  0  0  0  0  0  0  0  0  0  0  0
    4.3265   -0.9279    4.2620 H   0  0  0  0  0  0  0  0  0  0  0  0
    4.0118   -2.0831   -0.2836 H   0  0  0  0  0  0  0  0  0  0  0  0
    5.5222   -1.2284   -0.4954 H   0  0  0  0  0  0  0  0  0  0  0  0
    3.1547   -1.3039   -2.4330 H   0  0  0  0  0  0  0  0  0  0  0  0
    4.7276   -2.0606   -2.6465 H   0  0  0  0  0  0  0  0  0  0  0  0
    4.5091    0.0568   -3.9533 H   0  0  0  0  0  0  0  0  0  0  0  0
    5.8370    0.1144   -2.7970 H   0  0  0  0  0  0  0  0  0  0  0  0
    3.0716    1.3761   -2.4719 H   0  0  0  0  0  0  0  0  0  0  0  0
    4.5966    2.2204   -2.7045 H   0  0  0  0  0  0  0  0  0  0  0  0
    3.8953    2.2501   -0.3166 H   0  0  0  0  0  0  0  0  0  0  0  0
    5.4453    1.4797   -0.5470 H   0  0  0  0  0  0  0  0  0  0  0  0
  1  2  3  0  0  0  0
  1 13  1  0  0  0  0
  2  3  1  0  0  0  0
  3  4  1  0  0  0  0
  3  8  1  0  0  0  0
  3 12  1  0  0  0  0
  4  5  1  0  0  0  0
  5  6  1  0  0  0  0
  5  7  2  0  0  0  0
  6 14  1  0  0  0  0
  6 15  1  0  0  0  0
  8  9  1  0  0  0  0
  8 16  1  0  0  0  0
  8 17  1  0  0  0  0
  9 10  1  0  0  0  0
  9 18  1  0  0  0  0
  9 19  1  0  0  0  0
 10 11  1  0  0  0  0
 10 20  1  0  0  0  0
 10 21  1  0  0  0  0
 11 12  1  0  0  0  0
 11 22  1  0  0  0  0
 11 23  1  0  0  0  0
 12 24  1  0  0  0  0
 12 25  1  0  0  0  0
M  END
$$$$
