CHEBI:17820
 OpenBabel04242417403D

 26 26  0  0  0  0  0  0  0  0999 V2000
    3.6267   -1.7533    0.2172 O   0  0  0  0  0  0  0  0  0  0  0  0
    3.9167   -1.2934   -0.8714 C   0  0  0  0  0  0  0  0  0  0  0  0
    3.7714   -1.9515   -2.0442 O   0  0  0  0  0  0  0  0  0  0  0  0
    4.4530    0.0762   -1.1248 C   0  0  0  0  0  0  0  0  0  0  0  0
    4.2436    0.6475   -2.3702 O   0  0  0  0  0  0  0  0  0  0  0  0
    5.1443    0.6903   -0.1530 C   0  0  0  0  0  0  0  0  0  0  0  0
    5.7232    2.0114   -0.2779 C   0  0  0  0  0  0  0  0  0  0  0  0
    6.4702    2.5744    0.6832 C   0  0  0  0  0  0  0  0  0  0  0  0
    7.0216    3.9417    0.4775 C   0  0  0  0  0  0  0  0  0  0  0  0
    6.5623    4.7033   -0.3671 O   0  0  0  0  0  0  0  0  0  0  0  0
    8.1347    4.3828    1.3605 C   0  0  0  0  0  0  0  0  0  0  0  0
    9.0616    3.4824    1.9023 C   0  0  0  0  0  0  0  0  0  0  0  0
   10.1044    3.9513    2.7056 C   0  0  0  0  0  0  0  0  0  0  0  0
   10.2300    5.3159    2.9643 C   0  0  0  0  0  0  0  0  0  0  0  0
    9.3188    6.2175    2.4165 C   0  0  0  0  0  0  0  0  0  0  0  0
    8.2764    5.7538    1.6120 C   0  0  0  0  0  0  0  0  0  0  0  0
    4.2492   -1.4971   -2.7694 H   0  0  0  0  0  0  0  0  0  0  0  0
    3.2983    0.5118   -2.5780 H   0  0  0  0  0  0  0  0  0  0  0  0
    5.2841    0.1782    0.7989 H   0  0  0  0  0  0  0  0  0  0  0  0
    5.5358    2.5552   -1.2043 H   0  0  0  0  0  0  0  0  0  0  0  0
    6.6818    2.0689    1.6171 H   0  0  0  0  0  0  0  0  0  0  0  0
    9.0084    2.4184    1.6906 H   0  0  0  0  0  0  0  0  0  0  0  0
   10.8271    3.2529    3.1212 H   0  0  0  0  0  0  0  0  0  0  0  0
   11.0457    5.6787    3.5853 H   0  0  0  0  0  0  0  0  0  0  0  0
    9.4227    7.2826    2.6091 H   0  0  0  0  0  0  0  0  0  0  0  0
    7.5750    6.4650    1.1794 H   0  0  0  0  0  0  0  0  0  0  0  0
  1  2  2  0  0  0  0
  2  3  1  0  0  0  0
  2  4  1  0  0  0  0
  3 17  1  0  0  0  0
  4  5  1  0  0  0  0
  4  6  2  0  0  0  0
  5 18  1  0  0  0  0
  6  7  1  0  0  0  0
  6 19  1  0  0  0  0
  7  8  2  0  0  0  0
  7 20  1  0  0  0  0
  8  9  1  0  0  0  0
  8 21  1  0  0  0  0
  9 10  2  0  0  0  0
  9 11  1  0  0  0  0
 11 12  1  0  0  0  0
 11 16  2  0  0  0  0
 12 13  2  0  0  0  0
 12 22  1  0  0  0  0
 13 14  1  0  0  0  0
 13 23  1  0  0  0  0
 14 15  2  0  0  0  0
 14 24  1  0  0  0  0
 15 16  1  0  0  0  0
 15 25  1  0  0  0  0
 16 26  1  0  0  0  0
M  END
$$$$
