CHEBI:17125
 OpenBabel04242415533D

 28 27  0  0  0  0  0  0  0  0999 V2000
    5.2303   -1.8091    2.9171 C   0  0  0  0  0  0  0  0  0  0  0  0
    4.4309   -0.7120    2.2688 C   0  0  0  0  0  0  0  0  0  0  0  0
    3.3980   -0.2751    2.7687 O   0  0  0  0  0  0  0  0  0  0  0  0
    4.9837   -0.2594    1.0963 N   0  0  0  0  0  0  0  0  0  0  0  0
    4.3970    0.7963    0.2947 C   0  0  0  0  0  0  0  0  0  0  0  0
    5.3145    2.0130    0.1859 C   0  0  0  0  0  0  0  0  0  0  0  0
    6.6842    1.7272   -0.4503 C   0  0  0  0  0  0  0  0  0  0  0  0
    6.6364    1.1418   -1.8774 C   0  0  0  0  0  0  0  0  0  0  0  0
    5.9469    2.1098   -2.7587 N   0  0  0  0  0  0  0  0  0  0  0  0
    8.0293    0.8630   -2.4432 C   0  0  0  0  0  0  0  0  0  0  0  0
    8.5698   -0.4214   -1.8168 C   0  0  0  0  0  0  0  0  0  0  0  0
    9.0850   -0.2956   -0.6719 O   0  0  0  0  0  0  0  0  0  0  0  0
    8.4340   -1.4578   -2.5249 O   0  5  0  0  0  0  0  0  0  0  0  0
    6.1542   -1.3951    3.3292 H   0  0  0  0  0  0  0  0  0  0  0  0
    5.4644   -2.5895    2.1876 H   0  0  0  0  0  0  0  0  0  0  0  0
    4.6463   -2.2570    3.7265 H   0  0  0  0  0  0  0  0  0  0  0  0
    5.8410   -0.6874    0.7552 H   0  0  0  0  0  0  0  0  0  0  0  0
    3.4433    1.1067    0.7351 H   0  0  0  0  0  0  0  0  0  0  0  0
    4.1730    0.3733   -0.6886 H   0  0  0  0  0  0  0  0  0  0  0  0
    5.4867    2.4206    1.1904 H   0  0  0  0  0  0  0  0  0  0  0  0
    4.7994    2.7975   -0.3806 H   0  0  0  0  0  0  0  0  0  0  0  0
    7.2290    1.0515    0.2160 H   0  0  0  0  0  0  0  0  0  0  0  0
    7.2587    2.6633   -0.4579 H   0  0  0  0  0  0  0  0  0  0  0  0
    6.0552    0.2134   -1.8775 H   0  0  0  0  0  0  0  0  0  0  0  0
    6.5355    2.9395   -2.8280 H   0  0  0  0  0  0  0  0  0  0  0  0
    5.9347    1.7101   -3.6977 H   0  0  0  0  0  0  0  0  0  0  0  0
    8.7188    1.6953   -2.2601 H   0  0  0  0  0  0  0  0  0  0  0  0
    7.9869    0.7164   -3.5308 H   0  0  0  0  0  0  0  0  0  0  0  0
  1  2  1  0  0  0  0
  1 14  1  0  0  0  0
  1 15  1  0  0  0  0
  1 16  1  0  0  0  0
  2  3  2  0  0  0  0
  2  4  1  0  0  0  0
  4  5  1  0  0  0  0
  4 17  1  0  0  0  0
  5  6  1  0  0  0  0
  5 18  1  0  0  0  0
  5 19  1  0  0  0  0
  6  7  1  0  0  0  0
  6 20  1  0  0  0  0
  6 21  1  0  0  0  0
  7  8  1  0  0  0  0
  7 22  1  0  0  0  0
  7 23  1  0  0  0  0
  8  9  1  0  0  0  0
  8 10  1  0  0  0  0
  8 24  1  0  0  0  0
  9 25  1  0  0  0  0
  9 26  1  0  0  0  0
 10 11  1  0  0  0  0
 10 27  1  0  0  0  0
 10 28  1  0  0  0  0
 11 12  2  0  0  0  0
 11 13  1  0  0  0  0
M  CHG  1  13  -1
M  END
$$$$
