CHEBI:15564
 OpenBabel04242412483D

 22 22  0  0  1  0  0  0  0  0999 V2000
    3.8842   -0.2203    1.4460 O   0  0  0  0  0  0  0  0  0  0  0  0
    3.1662    0.3457    0.6385 C   0  0  0  0  0  0  0  0  0  0  0  0
    1.8187    0.2860    0.6666 O   0  0  0  0  0  0  0  0  0  0  0  0
    3.6777    1.1396   -0.5116 C   0  0  0  0  0  0  0  0  0  0  0  0
    4.7327    0.6413   -1.1814 C   0  0  0  0  0  0  0  0  0  0  0  0
    5.3458    1.3334   -2.3658 C   0  0  2  0  0  0  0  0  0  0  0  0
    6.6492    1.8130   -1.9761 O   0  0  0  0  0  0  0  0  0  0  0  0
    4.5268    2.5493   -2.9130 C   0  0  1  0  0  0  0  0  0  0  0  0
    5.4161    3.6486   -3.2210 O   0  0  0  0  0  0  0  0  0  0  0  0
    3.8439    2.1250   -4.2267 C   0  0  0  0  0  0  0  0  0  0  0  0
    3.0869    1.1742   -4.3581 O   0  0  0  0  0  0  0  0  0  0  0  0
    4.1701    2.9592   -5.2519 O   0  0  0  0  0  0  0  0  0  0  0  0
    3.4861    3.0867   -1.9671 C   0  0  0  0  0  0  0  0  0  0  0  0
    3.1092    2.4273   -0.8604 C   0  0  0  0  0  0  0  0  0  0  0  0
    1.3899    0.6514   -0.1309 H   0  0  0  0  0  0  0  0  0  0  0  0
    5.1625   -0.3145   -0.8867 H   0  0  0  0  0  0  0  0  0  0  0  0
    5.5128    0.5941   -3.1578 H   0  0  0  0  0  0  0  0  0  0  0  0
    7.0265    1.1733   -1.3439 H   0  0  0  0  0  0  0  0  0  0  0  0
    6.2716    3.3766   -2.8134 H   0  0  0  0  0  0  0  0  0  0  0  0
    4.7730    3.6542   -4.8874 H   0  0  0  0  0  0  0  0  0  0  0  0
    3.0420    4.0508   -2.2014 H   0  0  0  0  0  0  0  0  0  0  0  0
    2.3785    2.8682   -0.1855 H   0  0  0  0  0  0  0  0  0  0  0  0
  1  2  2  0  0  0  0
  2  3  1  0  0  0  0
  2  4  1  0  0  0  0
  3 15  1  0  0  0  0
  4  5  2  0  0  0  0
  4 14  1  0  0  0  0
  5  6  1  0  0  0  0
  5 16  1  0  0  0  0
  6  7  1  0  0  0  0
  6  8  1  0  0  0  0
  6 17  1  6  0  0  0
  7 18  1  0  0  0  0
  8  9  1  6  0  0  0
  8 10  1  0  0  0  0
  8 13  1  0  0  0  0
  9 19  1  0  0  0  0
 10 11  2  0  0  0  0
 10 12  1  0  0  0  0
 12 20  1  0  0  0  0
 13 14  2  0  0  0  0
 13 21  1  0  0  0  0
 14 22  1  0  0  0  0
M  END
$$$$
