CHEBI:2877
 OpenBabel04242410403D

 39 39  0  0  1  0  0  0  0  0999 V2000
    8.0085   -0.1070   -0.8830 C   0  0  0  0  0  0  0  0  0  0  0  0
    6.6174   -0.1226   -1.2119 O   0  0  0  0  0  0  0  0  0  0  0  0
    5.7614    0.1218   -0.1773 C   0  0  0  0  0  0  0  0  0  0  0  0
    6.1040    0.2310    0.9946 O   0  0  0  0  0  0  0  0  0  0  0  0
    4.2984    0.2390   -0.6525 C   0  0  2  0  0  0  0  0  0  0  0  0
    3.4495   -0.7574    0.1557 C   0  0  0  0  0  0  0  0  0  0  0  0
    1.9680   -0.6265   -0.1141 C   0  0  0  0  0  0  0  0  0  0  0  0
    1.3297   -1.4735   -1.0309 C   0  0  0  0  0  0  0  0  0  0  0  0
   -0.0316   -1.3253   -1.3008 C   0  0  0  0  0  0  0  0  0  0  0  0
   -0.7683   -0.3362   -0.6527 C   0  0  0  0  0  0  0  0  0  0  0  0
   -0.1454    0.5057    0.2664 C   0  0  0  0  0  0  0  0  0  0  0  0
    1.2172    0.3642    0.5334 C   0  0  0  0  0  0  0  0  0  0  0  0
    4.1536    0.0167   -2.0998 N   0  0  0  0  0  0  0  0  0  0  0  0
    4.5064    0.9954   -2.9969 C   0  0  0  0  0  0  0  0  0  0  0  0
    4.8402    2.1266   -2.6447 O   0  0  0  0  0  0  0  0  0  0  0  0
    4.4573    0.5960   -4.4887 C   0  0  1  0  0  0  0  0  0  0  0  0
    4.9531    1.7442   -5.3117 N   0  0  0  0  0  0  0  0  0  0  0  0
    5.3178   -0.6274   -4.7889 C   0  0  0  0  0  0  0  0  0  0  0  0
    5.1410   -1.1183   -6.2035 C   0  0  0  0  0  0  0  0  0  0  0  0
    4.9943   -2.2978   -6.4866 O   0  0  0  0  0  0  0  0  0  0  0  0
    5.2278   -0.1490   -7.1403 O   0  0  0  0  0  0  0  0  0  0  0  0
    8.2397    0.5714   -0.0559 H   0  0  0  0  0  0  0  0  0  0  0  0
    8.5551    0.2405   -1.7647 H   0  0  0  0  0  0  0  0  0  0  0  0
    8.3341   -1.1234   -0.6475 H   0  0  0  0  0  0  0  0  0  0  0  0
    3.9875    1.2706   -0.4449 H   0  0  0  0  0  0  0  0  0  0  0  0
    3.7700   -1.7861   -0.0583 H   0  0  0  0  0  0  0  0  0  0  0  0
    3.6181   -0.6200    1.2322 H   0  0  0  0  0  0  0  0  0  0  0  0
    1.8838   -2.2567   -1.5420 H   0  0  0  0  0  0  0  0  0  0  0  0
   -0.5194   -1.9835   -2.0154 H   0  0  0  0  0  0  0  0  0  0  0  0
   -1.8290   -0.2230   -0.8615 H   0  0  0  0  0  0  0  0  0  0  0  0
   -0.7215    1.2741    0.7758 H   0  0  0  0  0  0  0  0  0  0  0  0
    1.6867    1.0320    1.2529 H   0  0  0  0  0  0  0  0  0  0  0  0
    4.0088   -0.9328   -2.4130 H   0  0  0  0  0  0  0  0  0  0  0  0
    3.4109    0.4112   -4.7585 H   0  0  0  0  0  0  0  0  0  0  0  0
    5.7719    2.1255   -4.8109 H   0  0  0  0  0  0  0  0  0  0  0  0
    4.2769    2.5089   -5.1747 H   0  0  0  0  0  0  0  0  0  0  0  0
    5.0363   -1.4614   -4.1361 H   0  0  0  0  0  0  0  0  0  0  0  0
    6.3823   -0.4352   -4.6117 H   0  0  0  0  0  0  0  0  0  0  0  0
    5.2776    0.7511   -6.7221 H   0  0  0  0  0  0  0  0  0  0  0  0
  1  2  1  0  0  0  0
  1 22  1  0  0  0  0
  1 23  1  0  0  0  0
  1 24  1  0  0  0  0
  2  3  1  0  0  0  0
  3  4  2  0  0  0  0
  5 13  1  0  0  0  0
  5  6  1  0  0  0  0
  5  3  1  0  0  0  0
  5 25  1  1  0  0  0
  6  7  1  0  0  0  0
  6 26  1  0  0  0  0
  6 27  1  0  0  0  0
  7  8  1  0  0  0  0
  7 12  2  0  0  0  0
  8  9  2  0  0  0  0
  8 28  1  0  0  0  0
  9 10  1  0  0  0  0
  9 29  1  0  0  0  0
 10 11  2  0  0  0  0
 10 30  1  0  0  0  0
 11 12  1  0  0  0  0
 11 31  1  0  0  0  0
 12 32  1  0  0  0  0
 13 14  1  0  0  0  0
 13 33  1  0  0  0  0
 14 15  2  0  0  0  0
 14 16  1  0  0  0  0
 16 17  1  0  0  0  0
 16 18  1  0  0  0  0
 16 34  1  6  0  0  0
 17 35  1  0  0  0  0
 17 36  1  0  0  0  0
 18 19  1  0  0  0  0
 18 37  1  0  0  0  0
 18 38  1  0  0  0  0
 19 20  2  0  0  0  0
 19 21  1  0  0  0  0
 21 39  1  0  0  0  0
M  END
$$$$
