CHEBI:27451
 OpenBabel04252410033D

 24 25  0  0  0  0  0  0  0  0999 V2000
   -2.5558    0.3268   -0.6121 O   0  0  0  0  0  0  0  0  0  0  0  0
   -1.3610    0.1942   -0.3873 C   0  0  0  0  0  0  0  0  0  0  0  0
   -0.6966   -1.1149   -0.5196 C   0  0  0  0  0  0  0  0  0  0  0  0
    0.6056   -1.2721   -0.2611 C   0  0  0  0  0  0  0  0  0  0  0  0
    1.4574   -0.1340    0.1862 C   0  0  0  0  0  0  0  0  0  0  0  0
    2.7168   -0.1687    0.4973 N   0  0  0  0  0  0  0  0  0  0  0  0
    3.4402   -1.3650    0.4562 C   0  0  0  0  0  0  0  0  0  0  0  0
    4.3208   -1.6018   -0.6008 C   0  0  0  0  0  0  0  0  0  0  0  0
    5.0802   -2.7708   -0.6277 C   0  0  0  0  0  0  0  0  0  0  0  0
    6.1578   -3.0435   -1.9478 Cl  0  0  0  0  0  0  0  0  0  0  0  0
    4.9717   -3.7105    0.4012 C   0  0  0  0  0  0  0  0  0  0  0  0
    5.7111   -4.8649    0.3763 O   0  0  0  0  0  0  0  0  0  0  0  0
    4.1034   -3.4658    1.4670 C   0  0  0  0  0  0  0  0  0  0  0  0
    3.9310   -4.5892    2.7654 Cl  0  0  0  0  0  0  0  0  0  0  0  0
    3.3492   -2.2913    1.4994 C   0  0  0  0  0  0  0  0  0  0  0  0
    0.7760    1.1833    0.2824 C   0  0  0  0  0  0  0  0  0  0  0  0
   -0.5248    1.3358    0.0206 C   0  0  0  0  0  0  0  0  0  0  0  0
   -1.3238   -1.9391   -0.8382 H   0  0  0  0  0  0  0  0  0  0  0  0
    1.0651   -2.2461   -0.3720 H   0  0  0  0  0  0  0  0  0  0  0  0
    4.4150   -0.8633   -1.3926 H   0  0  0  0  0  0  0  0  0  0  0  0
    6.2773   -4.8424   -0.4176 H   0  0  0  0  0  0  0  0  0  0  0  0
    2.6894   -2.0879    2.3390 H   0  0  0  0  0  0  0  0  0  0  0  0
    1.3914    2.0232    0.5865 H   0  0  0  0  0  0  0  0  0  0  0  0
   -1.0204    2.2958    0.0979 H   0  0  0  0  0  0  0  0  0  0  0  0
  1  2  2  0  0  0  0
  2  3  1  0  0  0  0
  2 17  1  0  0  0  0
  3  4  2  0  0  0  0
  3 18  1  0  0  0  0
  4  5  1  0  0  0  0
  4 19  1  0  0  0  0
  5  6  2  0  0  0  0
  5 16  1  0  0  0  0
  6  7  1  0  0  0  0
  7  8  1  0  0  0  0
  7 15  2  0  0  0  0
  8  9  2  0  0  0  0
  8 20  1  0  0  0  0
  9 10  1  0  0  0  0
  9 11  1  0  0  0  0
 11 12  1  0  0  0  0
 11 13  2  0  0  0  0
 12 21  1  0  0  0  0
 13 14  1  0  0  0  0
 13 15  1  0  0  0  0
 15 22  1  0  0  0  0
 16 17  2  0  0  0  0
 16 23  1  0  0  0  0
 17 24  1  0  0  0  0
M  END
$$$$
