CHEBI:16534
 OpenBabel04242414423D

 25 24  0  0  1  0  0  0  0  0999 V2000
    6.7924    6.0455   -3.0753 O   0  0  0  0  0  0  0  0  0  0  0  0
    6.1337    5.0321   -3.2486 C   0  0  0  0  0  0  0  0  0  0  0  0
    5.4447    4.8593   -4.3975 O   0  0  0  0  0  0  0  0  0  0  0  0
    5.9338    3.8892   -2.2559 C   0  0  2  0  0  0  0  0  0  0  0  0
    6.5469    4.1586   -0.9959 O   0  0  0  0  0  0  0  0  0  0  0  0
    6.4912    2.5828   -2.8318 C   0  0  1  0  0  0  0  0  0  0  0  0
    7.9215    2.7162   -2.9926 O   0  0  0  0  0  0  0  0  0  0  0  0
    6.2560    1.3611   -1.9253 C   0  0  1  0  0  0  0  0  0  0  0  0
    6.7973    0.2101   -2.6135 O   0  0  0  0  0  0  0  0  0  0  0  0
    4.7988    1.0737   -1.5419 C   0  0  2  0  0  0  0  0  0  0  0  0
    4.7870   -0.1535   -0.7820 O   0  0  0  0  0  0  0  0  0  0  0  0
    3.8569    0.8826   -2.7348 C   0  0  0  0  0  0  0  0  0  0  0  0
    2.5518    0.5987   -2.2208 O   0  0  0  0  0  0  0  0  0  0  0  0
    5.6712    5.6610   -4.9175 H   0  0  0  0  0  0  0  0  0  0  0  0
    4.8562    3.8185   -2.0760 H   0  0  0  0  0  0  0  0  0  0  0  0
    7.4922    4.3134   -1.2000 H   0  0  0  0  0  0  0  0  0  0  0  0
    6.0951    2.3896   -3.8352 H   0  0  0  0  0  0  0  0  0  0  0  0
    8.2421    1.8053   -3.1628 H   0  0  0  0  0  0  0  0  0  0  0  0
    6.8605    1.4493   -1.0140 H   0  0  0  0  0  0  0  0  0  0  0  0
    6.5432   -0.5491   -2.0457 H   0  0  0  0  0  0  0  0  0  0  0  0
    4.4121    1.8535   -0.8771 H   0  0  0  0  0  0  0  0  0  0  0  0
    3.8362   -0.3484   -0.6471 H   0  0  0  0  0  0  0  0  0  0  0  0
    4.1599    0.0286   -3.3484 H   0  0  0  0  0  0  0  0  0  0  0  0
    3.7950    1.7815   -3.3537 H   0  0  0  0  0  0  0  0  0  0  0  0
    1.9692    0.4569   -2.9885 H   0  0  0  0  0  0  0  0  0  0  0  0
  1  2  2  0  0  0  0
  2  3  1  0  0  0  0
  3 14  1  0  0  0  0
  4  6  1  0  0  0  0
  4  5  1  0  0  0  0
  4  2  1  0  0  0  0
  4 15  1  1  0  0  0
  5 16  1  0  0  0  0
  6  7  1  0  0  0  0
  6  8  1  0  0  0  0
  6 17  1  6  0  0  0
  7 18  1  0  0  0  0
  8  9  1  0  0  0  0
  8 19  1  6  0  0  0
  9 20  1  0  0  0  0
 10 12  1  0  0  0  0
 10 11  1  0  0  0  0
 10  8  1  0  0  0  0
 10 21  1  1  0  0  0
 11 22  1  0  0  0  0
 12 13  1  0  0  0  0
 12 23  1  0  0  0  0
 12 24  1  0  0  0  0
 13 25  1  0  0  0  0
M  END
$$$$
