CHEBI:17168
 OpenBabel04242415583D

 74 77  0  0  1  0  0  0  0  0999 V2000
    8.9853   -2.3528    1.2115 C   0  0  0  0  0  0  0  0  0  0  0  0
    7.7026   -1.5996    1.5689 C   0  0  0  0  0  0  0  0  0  0  0  0
    7.3933   -1.7909    3.0563 C   0  0  0  0  0  0  0  0  0  0  0  0
    7.7935   -0.0962    1.2474 C   0  0  0  0  0  0  0  0  0  0  0  0
    7.9788    0.2074   -0.2446 C   0  0  0  0  0  0  0  0  0  0  0  0
    8.0559    1.7205   -0.4860 C   0  0  0  0  0  0  0  0  0  0  0  0
    8.2556    2.1510   -1.9661 C   0  0  1  0  0  0  0  0  0  0  0  0
    9.5691    1.5674   -2.4949 C   0  0  0  0  0  0  0  0  0  0  0  0
    7.0211    1.8346   -2.8641 C   0  0  1  0  0  0  0  0  0  0  0  0
    5.7316    2.4909   -2.2928 C   0  0  0  0  0  0  0  0  0  0  0  0
    4.9483    3.0593   -3.4735 C   0  0  0  0  0  0  0  0  0  0  0  0
    5.5051    2.3324   -4.7021 C   0  0  1  0  0  0  0  0  0  0  0  0
    4.8893    0.9534   -4.9966 C   0  0  0  0  0  0  0  0  0  0  0  0
    3.7658    0.4954   -4.4230 C   0  0  0  0  0  0  0  0  0  0  0  0
    3.1025   -0.7853   -4.7731 C   0  0  0  0  0  0  0  0  0  0  0  0
    3.4436   -1.3037   -6.1782 C   0  0  1  0  0  0  0  0  0  0  0  0
    2.9261   -2.7468   -6.3169 C   0  0  0  0  0  0  0  0  0  0  0  0
    3.6482   -3.7298   -5.3861 C   0  0  1  0  0  0  0  0  0  0  0  0
    3.6302   -5.0112   -6.0147 O   0  0  0  0  0  0  0  0  0  0  0  0
    5.0921   -3.3217   -5.0734 C   0  0  0  0  0  0  0  0  0  0  0  0
    5.7074   -2.5370   -6.2254 C   0  0  0  0  0  0  0  0  0  0  0  0
    4.9574   -1.2023   -6.5753 C   0  0  1  0  0  0  0  0  0  0  0  0
    5.0242   -1.1094   -8.1364 C   0  0  0  0  0  0  0  0  0  0  0  0
    5.6294    0.1480   -6.0527 C   0  0  1  0  0  0  0  0  0  0  0  0
    7.0873   -0.0106   -5.5883 C   0  0  0  0  0  0  0  0  0  0  0  0
    7.7690    1.3333   -5.3408 C   0  0  0  0  0  0  0  0  0  0  0  0
    7.0335    2.2803   -4.3691 C   0  0  2  0  0  0  0  0  0  0  0  0
    7.6652    3.6862   -4.5423 C   0  0  0  0  0  0  0  0  0  0  0  0
    8.9280   -3.3967    1.5385 H   0  0  0  0  0  0  0  0  0  0  0  0
    9.8594   -1.8972    1.6890 H   0  0  0  0  0  0  0  0  0  0  0  0
    9.1532   -2.3636    0.1305 H   0  0  0  0  0  0  0  0  0  0  0  0
    6.8759   -2.0350    0.9936 H   0  0  0  0  0  0  0  0  0  0  0  0
    8.1873   -1.3718    3.6842 H   0  0  0  0  0  0  0  0  0  0  0  0
    7.2943   -2.8538    3.3008 H   0  0  0  0  0  0  0  0  0  0  0  0
    6.4528   -1.2987    3.3254 H   0  0  0  0  0  0  0  0  0  0  0  0
    8.6195    0.3508    1.8155 H   0  0  0  0  0  0  0  0  0  0  0  0
    6.8744    0.3956    1.5918 H   0  0  0  0  0  0  0  0  0  0  0  0
    7.1452   -0.2266   -0.8063 H   0  0  0  0  0  0  0  0  0  0  0  0
    8.8994   -0.2627   -0.6018 H   0  0  0  0  0  0  0  0  0  0  0  0
    8.8930    2.1230    0.1008 H   0  0  0  0  0  0  0  0  0  0  0  0
    7.1591    2.1957   -0.0731 H   0  0  0  0  0  0  0  0  0  0  0  0
    8.3810    3.2417   -1.9388 H   0  0  0  0  0  0  0  0  0  0  0  0
    9.4704    0.5053   -2.7394 H   0  0  0  0  0  0  0  0  0  0  0  0
   10.3692    1.6723   -1.7533 H   0  0  0  0  0  0  0  0  0  0  0  0
    9.9114    2.0944   -3.3881 H   0  0  0  0  0  0  0  0  0  0  0  0
    6.8670    0.7484   -2.8393 H   0  0  0  0  0  0  0  0  0  0  0  0
    5.9418    3.2992   -1.5847 H   0  0  0  0  0  0  0  0  0  0  0  0
    5.1387    1.7357   -1.7636 H   0  0  0  0  0  0  0  0  0  0  0  0
    5.1489    4.1347   -3.5575 H   0  0  0  0  0  0  0  0  0  0  0  0
    3.8672    2.9893   -3.3339 H   0  0  0  0  0  0  0  0  0  0  0  0
    5.3302    2.9489   -5.5941 H   0  0  0  0  0  0  0  0  0  0  0  0
    3.2467    1.0636   -3.6591 H   0  0  0  0  0  0  0  0  0  0  0  0
    2.0160   -0.6302   -4.7281 H   0  0  0  0  0  0  0  0  0  0  0  0
    3.3263   -1.5035   -3.9797 H   0  0  0  0  0  0  0  0  0  0  0  0
    2.8689   -0.6817   -6.8805 H   0  0  0  0  0  0  0  0  0  0  0  0
    3.0181   -3.0768   -7.3593 H   0  0  0  0  0  0  0  0  0  0  0  0
    1.8492   -2.7843   -6.1062 H   0  0  0  0  0  0  0  0  0  0  0  0
    3.0922   -3.8332   -4.4472 H   0  0  0  0  0  0  0  0  0  0  0  0
    4.0328   -5.6464   -5.3982 H   0  0  0  0  0  0  0  0  0  0  0  0
    5.7034   -4.2109   -4.8782 H   0  0  0  0  0  0  0  0  0  0  0  0
    5.1351   -2.7095   -4.1665 H   0  0  0  0  0  0  0  0  0  0  0  0
    5.6955   -3.2062   -7.0981 H   0  0  0  0  0  0  0  0  0  0  0  0
    6.7696   -2.3909   -6.0249 H   0  0  0  0  0  0  0  0  0  0  0  0
    4.5697   -1.9797   -8.6216 H   0  0  0  0  0  0  0  0  0  0  0  0
    6.0634   -1.0445   -8.4793 H   0  0  0  0  0  0  0  0  0  0  0  0
    4.4931   -0.2243   -8.5064 H   0  0  0  0  0  0  0  0  0  0  0  0
    5.6600    0.8287   -6.9178 H   0  0  0  0  0  0  0  0  0  0  0  0
    7.6704   -0.5215   -6.3639 H   0  0  0  0  0  0  0  0  0  0  0  0
    7.1395   -0.6195   -4.6777 H   0  0  0  0  0  0  0  0  0  0  0  0
    7.8628    1.8323   -6.3159 H   0  0  0  0  0  0  0  0  0  0  0  0
    8.7941    1.1456   -5.0119 H   0  0  0  0  0  0  0  0  0  0  0  0
    8.7560    3.6497   -4.4650 H   0  0  0  0  0  0  0  0  0  0  0  0
    7.3159    4.4054   -3.7957 H   0  0  0  0  0  0  0  0  0  0  0  0
    7.4302    4.0981   -5.5307 H   0  0  0  0  0  0  0  0  0  0  0  0
  1  2  1  0  0  0  0
  1 29  1  0  0  0  0
  1 30  1  0  0  0  0
  1 31  1  0  0  0  0
  2  3  1  0  0  0  0
  2  4  1  0  0  0  0
  2 32  1  0  0  0  0
  3 33  1  0  0  0  0
  3 34  1  0  0  0  0
  3 35  1  0  0  0  0
  4  5  1  0  0  0  0
  4 36  1  0  0  0  0
  4 37  1  0  0  0  0
  5  6  1  0  0  0  0
  5 38  1  0  0  0  0
  5 39  1  0  0  0  0
  6 40  1  0  0  0  0
  6 41  1  0  0  0  0
  7  8  1  0  0  0  0
  7  6  1  0  0  0  0
  7 42  1  1  0  0  0
  8 43  1  0  0  0  0
  8 44  1  0  0  0  0
  8 45  1  0  0  0  0
  9 10  1  0  0  0  0
  9 27  1  0  0  0  0
  9  7  1  0  0  0  0
  9 46  1  1  0  0  0
 10 11  1  0  0  0  0
 10 47  1  0  0  0  0
 10 48  1  0  0  0  0
 11 12  1  0  0  0  0
 11 49  1  0  0  0  0
 11 50  1  0  0  0  0
 12 13  1  0  0  0  0
 12 27  1  0  0  0  0
 12 51  1  1  0  0  0
 13 14  2  0  0  0  0
 13 24  1  0  0  0  0
 14 15  1  0  0  0  0
 14 52  1  0  0  0  0
 15 16  1  0  0  0  0
 15 53  1  0  0  0  0
 15 54  1  0  0  0  0
 16 17  1  0  0  0  0
 16 22  1  0  0  0  0
 16 55  1  1  0  0  0
 17 18  1  0  0  0  0
 17 56  1  0  0  0  0
 17 57  1  0  0  0  0
 18 20  1  0  0  0  0
 18 19  1  0  0  0  0
 18 58  1  1  0  0  0
 19 59  1  0  0  0  0
 20 21  1  0  0  0  0
 20 60  1  0  0  0  0
 20 61  1  0  0  0  0
 21 22  1  0  0  0  0
 21 62  1  0  0  0  0
 21 63  1  0  0  0  0
 22 24  1  0  0  0  0
 22 23  1  6  0  0  0
 23 64  1  0  0  0  0
 23 65  1  0  0  0  0
 23 66  1  0  0  0  0
 24 25  1  0  0  0  0
 24 67  1  1  0  0  0
 25 26  1  0  0  0  0
 25 68  1  0  0  0  0
 25 69  1  0  0  0  0
 26 27  1  0  0  0  0
 26 70  1  0  0  0  0
 26 71  1  0  0  0  0
 27 28  1  6  0  0  0
 28 72  1  0  0  0  0
 28 73  1  0  0  0  0
 28 74  1  0  0  0  0
M  END
$$$$
