CHEBI:17428
 OpenBabel04242416333D

 47 49  0  0  1  0  0  0  0  0999 V2000
    9.5393    0.2167   -3.1329 C   0  0  0  0  0  0  0  0  0  0  0  0
    8.2131    0.5030   -2.7130 O   0  0  0  0  0  0  0  0  0  0  0  0
    7.9559    1.7408   -2.1895 C   0  0  0  0  0  0  0  0  0  0  0  0
    6.6422    1.8741   -1.7202 C   0  0  0  0  0  0  0  0  0  0  0  0
    6.1859    3.0720   -1.1640 C   0  0  0  0  0  0  0  0  0  0  0  0
    7.0479    4.1654   -1.0546 C   0  0  0  0  0  0  0  0  0  0  0  0
    6.5667    5.4803   -0.4797 C   0  0  0  0  0  0  0  0  0  0  0  0
    5.8730    6.4411   -1.4919 C   0  0  2  0  0  0  0  0  0  0  0  0
    6.8325    6.8613   -2.6052 C   0  0  0  0  0  0  0  0  0  0  0  0
    7.0059    6.0623   -3.7462 C   0  0  0  0  0  0  0  0  0  0  0  0
    7.9743    6.3835   -4.7044 C   0  0  0  0  0  0  0  0  0  0  0  0
    8.1069    5.5661   -5.7929 O   0  0  0  0  0  0  0  0  0  0  0  0
    8.7798    7.5151   -4.5444 C   0  0  0  0  0  0  0  0  0  0  0  0
    9.7724    7.9617   -5.3750 O   0  0  0  0  0  0  0  0  0  0  0  0
   10.3911    6.9968   -6.2156 C   0  0  0  0  0  0  0  0  0  0  0  0
    8.5677    8.3427   -3.4358 C   0  0  0  0  0  0  0  0  0  0  0  0
    7.5984    8.0275   -2.4771 C   0  0  0  0  0  0  0  0  0  0  0  0
    7.3301    8.9202   -1.3002 C   0  0  0  0  0  0  0  0  0  0  0  0
    5.8233    8.9009   -1.0244 C   0  0  0  0  0  0  0  0  0  0  0  0
    5.3260    7.5622   -0.6788 N   0  0  0  0  0  0  0  0  0  0  0  0
    3.8655    7.5474   -0.6426 C   0  0  0  0  0  0  0  0  0  0  0  0
    8.3675    4.0346   -1.5119 C   0  0  0  0  0  0  0  0  0  0  0  0
    8.8143    2.8399   -2.0891 C   0  0  0  0  0  0  0  0  0  0  0  0
   10.0968    2.7956   -2.5611 O   0  0  0  0  0  0  0  0  0  0  0  0
    9.5664   -0.8320   -3.4458 H   0  0  0  0  0  0  0  0  0  0  0  0
   10.2544    0.3261   -2.3113 H   0  0  0  0  0  0  0  0  0  0  0  0
    9.8157    0.8193   -4.0037 H   0  0  0  0  0  0  0  0  0  0  0  0
    5.9640    1.0259   -1.7906 H   0  0  0  0  0  0  0  0  0  0  0  0
    5.1587    3.1378   -0.8129 H   0  0  0  0  0  0  0  0  0  0  0  0
    7.4166    5.9852    0.0010 H   0  0  0  0  0  0  0  0  0  0  0  0
    5.8700    5.2465    0.3382 H   0  0  0  0  0  0  0  0  0  0  0  0
    5.0451    5.9033   -1.9756 H   0  0  0  0  0  0  0  0  0  0  0  0
    6.3987    5.1676   -3.8622 H   0  0  0  0  0  0  0  0  0  0  0  0
    7.4790    4.8288   -5.7144 H   0  0  0  0  0  0  0  0  0  0  0  0
   11.3294    7.4296   -6.5770 H   0  0  0  0  0  0  0  0  0  0  0  0
    9.7720    6.7890   -7.0931 H   0  0  0  0  0  0  0  0  0  0  0  0
   10.6458    6.0816   -5.6700 H   0  0  0  0  0  0  0  0  0  0  0  0
    9.1698    9.2422   -3.3267 H   0  0  0  0  0  0  0  0  0  0  0  0
    7.6424    9.9480   -1.5176 H   0  0  0  0  0  0  0  0  0  0  0  0
    7.8990    8.5699   -0.4311 H   0  0  0  0  0  0  0  0  0  0  0  0
    5.2918    9.2928   -1.9032 H   0  0  0  0  0  0  0  0  0  0  0  0
    5.6150    9.5832   -0.1913 H   0  0  0  0  0  0  0  0  0  0  0  0
    3.4880    8.3147    0.0425 H   0  0  0  0  0  0  0  0  0  0  0  0
    3.4972    6.5857   -0.2686 H   0  0  0  0  0  0  0  0  0  0  0  0
    3.4299    7.7246   -1.6325 H   0  0  0  0  0  0  0  0  0  0  0  0
    9.0371    4.8889   -1.4344 H   0  0  0  0  0  0  0  0  0  0  0  0
   10.4919    3.6801   -2.4820 H   0  0  0  0  0  0  0  0  0  0  0  0
  1  2  1  0  0  0  0
  1 25  1  0  0  0  0
  1 26  1  0  0  0  0
  1 27  1  0  0  0  0
  2  3  1  0  0  0  0
  3  4  1  0  0  0  0
  3 23  2  0  0  0  0
  4  5  2  0  0  0  0
  4 28  1  0  0  0  0
  5  6  1  0  0  0  0
  5 29  1  0  0  0  0
  6  7  1  0  0  0  0
  6 22  2  0  0  0  0
  7  8  1  0  0  0  0
  7 30  1  0  0  0  0
  7 31  1  0  0  0  0
  8  9  1  0  0  0  0
  8 20  1  0  0  0  0
  8 32  1  6  0  0  0
  9 10  1  0  0  0  0
  9 17  2  0  0  0  0
 10 11  2  0  0  0  0
 10 33  1  0  0  0  0
 11 12  1  0  0  0  0
 11 13  1  0  0  0  0
 12 34  1  0  0  0  0
 13 14  1  0  0  0  0
 13 16  2  0  0  0  0
 14 15  1  0  0  0  0
 15 35  1  0  0  0  0
 15 36  1  0  0  0  0
 15 37  1  0  0  0  0
 16 17  1  0  0  0  0
 16 38  1  0  0  0  0
 17 18  1  0  0  0  0
 18 19  1  0  0  0  0
 18 39  1  0  0  0  0
 18 40  1  0  0  0  0
 19 20  1  0  0  0  0
 19 41  1  0  0  0  0
 19 42  1  0  0  0  0
 20 21  1  0  0  0  0
 21 43  1  0  0  0  0
 21 44  1  0  0  0  0
 21 45  1  0  0  0  0
 22 23  1  0  0  0  0
 22 46  1  0  0  0  0
 23 24  1  0  0  0  0
 24 47  1  0  0  0  0
M  END
$$$$
