CHEBI:17057
 OpenBabel04242415473D

 45 46  0  0  1  0  0  0  0  0999 V2000
    0.8071    0.9896   -3.3361 O   0  0  0  0  0  0  0  0  0  0  0  0
    1.8682    0.2455   -2.7433 C   0  0  0  0  0  0  0  0  0  0  0  0
    1.8430    0.3766   -1.2136 C   0  0  1  0  0  0  0  0  0  0  0  0
    2.9596   -0.3521   -0.6922 O   0  0  0  0  0  0  0  0  0  0  0  0
    3.0035   -0.3560    0.7342 C   0  0  1  0  0  0  0  0  0  0  0  0
    4.1562   -1.0814    1.1835 O   0  0  0  0  0  0  0  0  0  0  0  0
    4.1805   -2.4769    0.8180 C   0  0  1  0  0  0  0  0  0  0  0  0
    5.6392   -2.9312    1.0031 C   0  0  2  0  0  0  0  0  0  0  0  0
    5.9588   -3.9481    0.0398 O   0  0  0  0  0  0  0  0  0  0  0  0
    5.9226   -3.4799    2.4098 C   0  0  1  0  0  0  0  0  0  0  0  0
    7.2689   -3.1447    2.7811 O   0  0  0  0  0  0  0  0  0  0  0  0
    4.9087   -2.9700    3.4424 C   0  0  0  0  0  0  0  0  0  0  0  0
    5.1039   -1.5854    3.6981 O   0  0  0  0  0  0  0  0  0  0  0  0
    3.5520   -3.2400    3.1182 O   0  0  0  0  0  0  0  0  0  0  0  0
    3.2237   -3.2853    1.7137 C   0  0  2  0  0  0  0  0  0  0  0  0
    3.0912   -4.7540    1.2815 C   0  0  0  0  0  0  0  0  0  0  0  0
    2.0494   -5.3768    2.0368 O   0  0  0  0  0  0  0  0  0  0  0  0
    3.1254    1.0797    1.2806 C   0  0  2  0  0  0  0  0  0  0  0  0
    3.0858    1.0864    2.7155 O   0  0  0  0  0  0  0  0  0  0  0  0
    1.9804    1.9348    0.7472 C   0  0  1  0  0  0  0  0  0  0  0  0
    2.1763    3.2979    1.1567 O   0  0  0  0  0  0  0  0  0  0  0  0
    1.8902    1.8524   -0.7768 C   0  0  2  0  0  0  0  0  0  0  0  0
    0.7253    2.5840   -1.1769 O   0  0  0  0  0  0  0  0  0  0  0  0
    0.8183    0.7783   -4.2891 H   0  0  0  0  0  0  0  0  0  0  0  0
    2.8204    0.6063   -3.1476 H   0  0  0  0  0  0  0  0  0  0  0  0
    1.7681   -0.8073   -3.0298 H   0  0  0  0  0  0  0  0  0  0  0  0
    0.9086   -0.0769   -0.8558 H   0  0  0  0  0  0  0  0  0  0  0  0
    2.1005   -0.8259    1.1383 H   0  0  0  0  0  0  0  0  0  0  0  0
    3.8966   -2.5828   -0.2358 H   0  0  0  0  0  0  0  0  0  0  0  0
    6.3119   -2.0915    0.7860 H   0  0  0  0  0  0  0  0  0  0  0  0
    6.9063   -4.1513    0.1691 H   0  0  0  0  0  0  0  0  0  0  0  0
    5.8822   -4.5745    2.3871 H   0  0  0  0  0  0  0  0  0  0  0  0
    7.2120   -2.2796    3.2383 H   0  0  0  0  0  0  0  0  0  0  0  0
    5.1119   -3.4651    4.3977 H   0  0  0  0  0  0  0  0  0  0  0  0
    4.6525   -1.0996    2.9783 H   0  0  0  0  0  0  0  0  0  0  0  0
    2.2188   -2.8546    1.6637 H   0  0  0  0  0  0  0  0  0  0  0  0
    2.8312   -4.8328    0.2218 H   0  0  0  0  0  0  0  0  0  0  0  0
    3.9997   -5.3307    1.4655 H   0  0  0  0  0  0  0  0  0  0  0  0
    2.1817   -5.0998    2.9645 H   0  0  0  0  0  0  0  0  0  0  0  0
    4.0911    1.5136    0.9924 H   0  0  0  0  0  0  0  0  0  0  0  0
    3.0310    2.0311    2.9649 H   0  0  0  0  0  0  0  0  0  0  0  0
    1.0322    1.6248    1.2047 H   0  0  0  0  0  0  0  0  0  0  0  0
    1.5076    3.8088    0.6553 H   0  0  0  0  0  0  0  0  0  0  0  0
    2.7584    2.3571   -1.2183 H   0  0  0  0  0  0  0  0  0  0  0  0
    0.5191    2.2994   -2.0958 H   0  0  0  0  0  0  0  0  0  0  0  0
  1  2  1  0  0  0  0
  1 24  1  0  0  0  0
  2 25  1  0  0  0  0
  2 26  1  0  0  0  0
  3  4  1  0  0  0  0
  3 22  1  0  0  0  0
  3  2  1  0  0  0  0
  3 27  1  1  0  0  0
  4  5  1  0  0  0  0
  5 18  1  0  0  0  0
  5  6  1  0  0  0  0
  5 28  1  1  0  0  0
  6  7  1  0  0  0  0
  7  8  1  0  0  0  0
  7 15  1  0  0  0  0
  7 29  1  6  0  0  0
  8  9  1  0  0  0  0
  8 10  1  0  0  0  0
  8 30  1  6  0  0  0
  9 31  1  0  0  0  0
 10 11  1  0  0  0  0
 10 12  1  0  0  0  0
 10 32  1  6  0  0  0
 11 33  1  0  0  0  0
 12 13  1  0  0  0  0
 12 14  1  0  0  0  0
 12 34  1  0  0  0  0
 13 35  1  0  0  0  0
 14 15  1  0  0  0  0
 15 16  1  0  0  0  0
 15 36  1  6  0  0  0
 16 17  1  0  0  0  0
 16 37  1  0  0  0  0
 16 38  1  0  0  0  0
 17 39  1  0  0  0  0
 18 19  1  0  0  0  0
 18 20  1  0  0  0  0
 18 40  1  6  0  0  0
 19 41  1  0  0  0  0
 20 21  1  0  0  0  0
 20 22  1  0  0  0  0
 20 42  1  1  0  0  0
 21 43  1  0  0  0  0
 22 23  1  0  0  0  0
 22 44  1  6  0  0  0
 23 45  1  0  0  0  0
M  END
$$$$
