CHEBI:16475
 OpenBabel04242414303D

 38 38  0  0  1  0  0  0  0  0999 V2000
    2.8072   -2.7687   -4.8212 C   0  0  0  0  0  0  0  0  0  0  0  0
    1.7811   -3.1149   -3.8158 N   0  3  0  0  0  0  0  0  0  0  0  0
    0.8947   -1.9799   -3.3706 C   0  0  0  0  0  0  0  0  0  0  0  0
   -0.3954   -2.4778   -2.6948 C   0  0  0  0  0  0  0  0  0  0  0  0
   -0.2519   -3.3305   -1.4241 C   0  0  0  0  0  0  0  0  0  0  0  0
    0.3826   -4.6521   -1.6878 C   0  0  0  0  0  0  0  0  0  0  0  0
    0.5647   -5.2051   -2.8717 N   0  0  0  0  0  0  0  0  0  0  0  0
    1.1467   -6.4304   -2.6307 C   0  0  0  0  0  0  0  0  0  0  0  0
    1.3744   -7.3953   -3.7452 C   0  0  0  0  0  0  0  0  0  0  0  0
    2.8463   -7.5646   -4.1367 C   0  0  2  0  0  0  0  0  0  0  0  0
    3.4335   -6.3021   -4.6861 N   0  0  0  0  0  0  0  0  0  0  0  0
    2.9226   -8.6496   -5.2201 C   0  0  0  0  0  0  0  0  0  0  0  0
    2.9797   -8.3868   -6.4152 O   0  0  0  0  0  0  0  0  0  0  0  0
    2.9093   -9.9139   -4.7543 O   0  0  0  0  0  0  0  0  0  0  0  0
    1.3965   -6.5743   -1.2839 C   0  0  0  0  0  0  0  0  0  0  0  0
    0.8963   -5.4455   -0.6927 N   0  0  0  0  0  0  0  0  0  0  0  0
    1.6623   -1.0156   -2.4675 C   0  0  0  0  0  0  0  0  0  0  0  0
    2.2342   -1.3326   -1.4343 O   0  0  0  0  0  0  0  0  0  0  0  0
    1.7583    0.2247   -2.9743 O   0  0  0  0  0  0  0  0  0  0  0  0
    3.3559   -3.6752   -5.0723 H   0  0  0  0  0  0  0  0  0  0  0  0
    3.4853   -2.0325   -4.3828 H   0  0  0  0  0  0  0  0  0  0  0  0
    2.3073   -2.3681   -5.7055 H   0  0  0  0  0  0  0  0  0  0  0  0
    2.2505   -3.5269   -2.9943 H   0  0  0  0  0  0  0  0  0  0  0  0
    1.2042   -3.9259   -4.1182 H   0  0  0  0  0  0  0  0  0  0  0  0
    0.6066   -1.4511   -4.2876 H   0  0  0  0  0  0  0  0  0  0  0  0
   -0.9870   -3.0329   -3.4358 H   0  0  0  0  0  0  0  0  0  0  0  0
   -0.9974   -1.5983   -2.4292 H   0  0  0  0  0  0  0  0  0  0  0  0
   -1.2553   -3.5138   -1.0191 H   0  0  0  0  0  0  0  0  0  0  0  0
    0.3015   -2.7875   -0.6519 H   0  0  0  0  0  0  0  0  0  0  0  0
    0.7878   -7.0804   -4.6189 H   0  0  0  0  0  0  0  0  0  0  0  0
    0.9583   -8.3668   -3.4467 H   0  0  0  0  0  0  0  0  0  0  0  0
    3.4597   -7.8693   -3.2815 H   0  0  0  0  0  0  0  0  0  0  0  0
    3.0756   -6.2357   -5.6503 H   0  0  0  0  0  0  0  0  0  0  0  0
    4.4305   -6.4877   -4.8449 H   0  0  0  0  0  0  0  0  0  0  0  0
    2.8923  -10.0195   -3.7843 H   0  0  0  0  0  0  0  0  0  0  0  0
    1.8363   -7.3722   -0.7006 H   0  0  0  0  0  0  0  0  0  0  0  0
    0.8883   -5.2423    0.3000 H   0  0  0  0  0  0  0  0  0  0  0  0
    2.3066    0.7487   -2.3464 H   0  0  0  0  0  0  0  0  0  0  0  0
  1  2  1  0  0  0  0
  1 20  1  0  0  0  0
  1 21  1  0  0  0  0
  1 22  1  0  0  0  0
  2  3  1  0  0  0  0
  2 23  1  0  0  0  0
  2 24  1  0  0  0  0
  3  4  1  0  0  0  0
  3 17  1  0  0  0  0
  3 25  1  0  0  0  0
  4  5  1  0  0  0  0
  4 26  1  0  0  0  0
  4 27  1  0  0  0  0
  5  6  1  0  0  0  0
  5 28  1  0  0  0  0
  5 29  1  0  0  0  0
  6  7  2  0  0  0  0
  6 16  1  0  0  0  0
  7  8  1  0  0  0  0
  8  9  1  0  0  0  0
  8 15  2  0  0  0  0
  9 30  1  0  0  0  0
  9 31  1  0  0  0  0
 10 12  1  0  0  0  0
 10 11  1  0  0  0  0
 10  9  1  0  0  0  0
 10 32  1  1  0  0  0
 11 33  1  0  0  0  0
 11 34  1  0  0  0  0
 12 13  2  0  0  0  0
 12 14  1  0  0  0  0
 14 35  1  0  0  0  0
 15 16  1  0  0  0  0
 15 36  1  0  0  0  0
 16 37  1  0  0  0  0
 17 18  2  0  0  0  0
 17 19  1  0  0  0  0
 19 38  1  0  0  0  0
M  CHG  1   2   1
M  END
$$$$
