CHEBI:17711
 OpenBabel04242417093D

 60 62  0  0  1  0  0  0  0  0999 V2000
   -5.3827   -1.3884   -1.3111 N   0  0  0  0  0  0  0  0  0  0  0  0
   -4.5269   -0.3102   -1.9127 C   0  0  2  0  0  0  0  0  0  0  0  0
   -5.0324    0.0128   -3.3211 C   0  0  0  0  0  0  0  0  0  0  0  0
   -4.3927    1.2535   -3.9468 C   0  0  0  0  0  0  0  0  0  0  0  0
   -4.7342    2.4127   -3.1820 O   0  0  0  0  0  0  0  0  0  0  0  0
   -4.3417    3.6157   -3.7114 C   0  0  0  0  0  0  0  0  0  0  0  0
   -3.5256    3.7797   -4.8312 C   0  0  0  0  0  0  0  0  0  0  0  0
   -3.1989    5.0598   -5.2917 C   0  0  0  0  0  0  0  0  0  0  0  0
   -3.6752    6.1976   -4.6311 C   0  0  0  0  0  0  0  0  0  0  0  0
   -3.3362    7.5696   -5.1193 C   0  0  0  0  0  0  0  0  0  0  0  0
   -4.1065    8.5769   -4.8047 N   0  0  0  0  0  0  0  0  0  0  0  0
   -3.6662    9.7930   -5.3353 O   0  0  0  0  0  0  0  0  0  0  0  0
   -2.0936    7.7099   -6.0022 C   0  0  0  0  0  0  0  0  0  0  0  0
   -1.0466    7.1627   -5.6899 O   0  0  0  0  0  0  0  0  0  0  0  0
   -2.2883    8.4029   -7.1751 N   0  0  0  0  0  0  0  0  0  0  0  0
   -1.2089    8.5285   -8.1770 C   0  0  1  0  0  0  0  0  0  0  0  0
   -1.3350    7.5240   -9.3521 C   0  0  0  0  0  0  0  0  0  0  0  0
   -1.2315    8.6714  -10.2749 N   0  0  0  0  0  0  0  0  0  0  0  0
   -1.8839    8.8236  -11.5746 C   0  0  1  0  0  0  0  0  0  0  0  0
   -1.0557    9.7263  -12.5289 C   0  0  0  0  0  0  0  0  0  0  0  0
   -0.9615    9.5687  -13.7401 O   0  0  0  0  0  0  0  0  0  0  0  0
   -0.5298   10.8352  -11.9429 O   0  0  0  0  0  0  0  0  0  0  0  0
   -2.2915    7.4867  -12.1780 C   0  0  0  0  0  0  0  0  0  0  0  0
   -3.6300    7.0619  -12.0671 C   0  0  0  0  0  0  0  0  0  0  0  0
   -4.0362    5.8267  -12.5758 C   0  0  0  0  0  0  0  0  0  0  0  0
   -3.1038    5.0072  -13.1990 C   0  0  0  0  0  0  0  0  0  0  0  0
   -3.4578    3.7961  -13.7149 O   0  0  0  0  0  0  0  0  0  0  0  0
   -1.7759    5.4000  -13.3136 C   0  0  0  0  0  0  0  0  0  0  0  0
   -1.3665    6.6330  -12.7989 C   0  0  0  0  0  0  0  0  0  0  0  0
   -1.3945    9.5915   -9.2850 C   0  0  0  0  0  0  0  0  0  0  0  0
   -1.6328   10.7729   -9.4031 O   0  0  0  0  0  0  0  0  0  0  0  0
   -4.4926    6.0352   -3.5061 C   0  0  0  0  0  0  0  0  0  0  0  0
   -4.8156    4.7505   -3.0480 C   0  0  0  0  0  0  0  0  0  0  0  0
   -3.0716   -0.8282   -1.9087 C   0  0  0  0  0  0  0  0  0  0  0  0
   -2.1428   -0.3719   -2.5537 O   0  0  0  0  0  0  0  0  0  0  0  0
   -2.9371   -1.8870   -1.0646 O   0  0  0  0  0  0  0  0  0  0  0  0
   -5.5642   -2.0939   -2.0348 H   0  0  0  0  0  0  0  0  0  0  0  0
   -6.3051   -0.9817   -1.1268 H   0  0  0  0  0  0  0  0  0  0  0  0
   -4.5702    0.5599   -1.2496 H   0  0  0  0  0  0  0  0  0  0  0  0
   -4.8571   -0.8414   -3.9872 H   0  0  0  0  0  0  0  0  0  0  0  0
   -6.1168    0.1796   -3.2780 H   0  0  0  0  0  0  0  0  0  0  0  0
   -4.7958    1.3542   -4.9626 H   0  0  0  0  0  0  0  0  0  0  0  0
   -3.3063    1.1450   -4.0050 H   0  0  0  0  0  0  0  0  0  0  0  0
   -3.1127    2.9335   -5.3712 H   0  0  0  0  0  0  0  0  0  0  0  0
   -2.5625    5.1357   -6.1697 H   0  0  0  0  0  0  0  0  0  0  0  0
   -4.2628   10.4388   -4.9066 H   0  0  0  0  0  0  0  0  0  0  0  0
   -3.1176    8.9928   -7.1915 H   0  0  0  0  0  0  0  0  0  0  0  0
   -0.2120    8.5862   -7.7244 H   0  0  0  0  0  0  0  0  0  0  0  0
   -2.2878    6.9894   -9.4112 H   0  0  0  0  0  0  0  0  0  0  0  0
   -0.5015    6.8233   -9.4509 H   0  0  0  0  0  0  0  0  0  0  0  0
   -2.8028    9.4043  -11.4070 H   0  0  0  0  0  0  0  0  0  0  0  0
   -0.8107   10.9735  -11.0096 H   0  0  0  0  0  0  0  0  0  0  0  0
   -4.3701    7.6932  -11.5788 H   0  0  0  0  0  0  0  0  0  0  0  0
   -5.0743    5.5255  -12.4767 H   0  0  0  0  0  0  0  0  0  0  0  0
   -4.4196    3.6910  -13.6319 H   0  0  0  0  0  0  0  0  0  0  0  0
   -1.0601    4.7511  -13.8111 H   0  0  0  0  0  0  0  0  0  0  0  0
   -0.3233    6.9250  -12.9060 H   0  0  0  0  0  0  0  0  0  0  0  0
   -4.8743    6.9012   -2.9695 H   0  0  0  0  0  0  0  0  0  0  0  0
   -5.4426    4.6380   -2.1665 H   0  0  0  0  0  0  0  0  0  0  0  0
   -3.8411   -2.0464   -0.6917 H   0  0  0  0  0  0  0  0  0  0  0  0
  1 37  1  0  0  0  0
  1 38  1  0  0  0  0
  2 34  1  0  0  0  0
  2  3  1  0  0  0  0
  2  1  1  0  0  0  0
  2 39  1  1  0  0  0
  3  4  1  0  0  0  0
  3 40  1  0  0  0  0
  3 41  1  0  0  0  0
  4  5  1  0  0  0  0
  4 42  1  0  0  0  0
  4 43  1  0  0  0  0
  5  6  1  0  0  0  0
  6  7  1  0  0  0  0
  6 33  2  0  0  0  0
  7  8  2  0  0  0  0
  7 44  1  0  0  0  0
  8  9  1  0  0  0  0
  8 45  1  0  0  0  0
  9 10  1  0  0  0  0
  9 32  2  0  0  0  0
 10 11  2  0  0  0  0
 10 13  1  0  0  0  0
 11 12  1  0  0  0  0
 12 46  1  0  0  0  0
 13 14  2  0  0  0  0
 13 15  1  0  0  0  0
 15 47  1  0  0  0  0
 16 17  1  0  0  0  0
 16 30  1  0  0  0  0
 16 15  1  0  0  0  0
 16 48  1  1  0  0  0
 17 18  1  0  0  0  0
 17 49  1  0  0  0  0
 17 50  1  0  0  0  0
 18 19  1  0  0  0  0
 18 30  1  0  0  0  0
 19 20  1  0  0  0  0
 19 23  1  0  0  0  0
 19 51  1  1  0  0  0
 20 21  2  0  0  0  0
 20 22  1  0  0  0  0
 22 52  1  0  0  0  0
 23 24  1  0  0  0  0
 23 29  2  0  0  0  0
 24 25  2  0  0  0  0
 24 53  1  0  0  0  0
 25 26  1  0  0  0  0
 25 54  1  0  0  0  0
 26 27  1  0  0  0  0
 26 28  2  0  0  0  0
 27 55  1  0  0  0  0
 28 29  1  0  0  0  0
 28 56  1  0  0  0  0
 29 57  1  0  0  0  0
 30 31  2  0  0  0  0
 32 33  1  0  0  0  0
 32 58  1  0  0  0  0
 33 59  1  0  0  0  0
 34 35  2  0  0  0  0
 34 36  1  0  0  0  0
 36 60  1  0  0  0  0
M  END
$$$$
