CHEBI:16136
 OpenBabel04242413523D

  3  2  0  0  0  0  0  0  0  0999 V2000
    0.9735   -0.0429   -0.0663 S   0  0  0  0  0  0  0  0  0  0  0  0
    2.3013    0.1315   -0.1357 H   0  0  0  0  0  0  0  0  0  0  0  0
    0.7078    1.1782   -0.5527 H   0  0  0  0  0  0  0  0  0  0  0  0
  1  2  1  0  0  0  0
  1  3  1  0  0  0  0
M  END
$$$$
