CHEBI:16533
 OpenBabel04242414423D

 28 29  0  0  1  0  0  0  0  0999 V2000
    8.8444   -3.5083    1.7802 N   0  0  0  0  0  0  0  0  0  0  0  0
    7.6832   -3.9371    1.2057 C   0  0  0  0  0  0  0  0  0  0  0  0
    7.6189   -5.0460    0.6788 O   0  0  0  0  0  0  0  0  0  0  0  0
    6.5016   -2.9455    1.2374 C   0  0  1  0  0  0  0  0  0  0  0  0
    5.6482   -3.1913    0.0471 N   0  0  0  0  0  0  0  0  0  0  0  0
    5.6840   -3.1162    2.5277 C   0  0  0  0  0  0  0  0  0  0  0  0
    6.3863   -2.6028    3.7514 C   0  0  0  0  0  0  0  0  0  0  0  0
    6.4286   -1.2892    4.1775 C   0  0  0  0  0  0  0  0  0  0  0  0
    7.1649   -1.2321    5.3296 N   0  0  0  0  0  0  0  0  0  0  0  0
    7.6260   -2.4844    5.6608 C   0  0  0  0  0  0  0  0  0  0  0  0
    8.4228   -2.8961    6.7358 C   0  0  0  0  0  0  0  0  0  0  0  0
    8.7346   -4.2555    6.8281 C   0  0  0  0  0  0  0  0  0  0  0  0
    8.2645   -5.1648    5.8841 C   0  0  0  0  0  0  0  0  0  0  0  0
    7.4668   -4.7366    4.8171 C   0  0  0  0  0  0  0  0  0  0  0  0
    7.1400   -3.3697    4.6983 C   0  0  0  0  0  0  0  0  0  0  0  0
    9.5775   -4.2009    1.8643 H   0  0  0  0  0  0  0  0  0  0  0  0
    8.8224   -2.7885    2.4933 H   0  0  0  0  0  0  0  0  0  0  0  0
    6.8950   -1.9250    1.1590 H   0  0  0  0  0  0  0  0  0  0  0  0
    5.4162   -4.1901    0.0470 H   0  0  0  0  0  0  0  0  0  0  0  0
    6.2352   -3.0862   -0.7829 H   0  0  0  0  0  0  0  0  0  0  0  0
    5.4179   -4.1713    2.6730 H   0  0  0  0  0  0  0  0  0  0  0  0
    4.7342   -2.5718    2.4332 H   0  0  0  0  0  0  0  0  0  0  0  0
    5.9861   -0.3925    3.7627 H   0  0  0  0  0  0  0  0  0  0  0  0
    7.3463   -0.3945    5.8656 H   0  0  0  0  0  0  0  0  0  0  0  0
    8.7862   -2.1918    7.4770 H   0  0  0  0  0  0  0  0  0  0  0  0
    9.3500   -4.6084    7.6527 H   0  0  0  0  0  0  0  0  0  0  0  0
    8.5154   -6.2189    5.9759 H   0  0  0  0  0  0  0  0  0  0  0  0
    7.1076   -5.4575    4.0875 H   0  0  0  0  0  0  0  0  0  0  0  0
  1  2  1  0  0  0  0
  1 16  1  0  0  0  0
  1 17  1  0  0  0  0
  2  3  2  0  0  0  0
  2  4  1  0  0  0  0
  4  5  1  0  0  0  0
  4  6  1  0  0  0  0
  4 18  1  6  0  0  0
  5 19  1  0  0  0  0
  5 20  1  0  0  0  0
  6  7  1  0  0  0  0
  6 21  1  0  0  0  0
  6 22  1  0  0  0  0
  7  8  2  0  0  0  0
  7 15  1  0  0  0  0
  8  9  1  0  0  0  0
  8 23  1  0  0  0  0
  9 10  1  0  0  0  0
  9 24  1  0  0  0  0
 10 11  1  0  0  0  0
 10 15  2  0  0  0  0
 11 12  2  0  0  0  0
 11 25  1  0  0  0  0
 12 13  1  0  0  0  0
 12 26  1  0  0  0  0
 13 14  2  0  0  0  0
 13 27  1  0  0  0  0
 14 15  1  0  0  0  0
 14 28  1  0  0  0  0
M  END
$$$$
