CHEBI:16821
 OpenBabel04242415193D

 16 16  0  0  1  0  0  0  0  0999 V2000
    1.8921    0.0108   -0.8963 O   0  0  0  0  0  0  0  0  0  0  0  0
    0.7704   -0.0819   -0.4152 C   0  0  0  0  0  0  0  0  0  0  0  0
   -0.0175    1.0782    0.1442 C   0  0  0  0  0  0  0  0  0  0  0  0
   -1.1828    0.4388    0.7865 N   0  0  0  0  0  0  0  0  0  0  0  0
   -1.3838   -0.8408    0.0313 C   0  0  2  0  0  0  0  0  0  0  0  0
   -2.1115   -1.8438    0.9243 C   0  0  0  0  0  0  0  0  0  0  0  0
   -2.5353   -2.9245    0.5476 O   0  0  0  0  0  0  0  0  0  0  0  0
   -2.2070   -1.4086    2.2060 O   0  0  0  0  0  0  0  0  0  0  0  0
    0.0015   -1.3604   -0.3214 C   0  0  0  0  0  0  0  0  0  0  0  0
   -0.3326    1.7254   -0.6794 H   0  0  0  0  0  0  0  0  0  0  0  0
    0.5711    1.6300    0.8796 H   0  0  0  0  0  0  0  0  0  0  0  0
   -2.0017    1.0407    0.6485 H   0  0  0  0  0  0  0  0  0  0  0  0
   -1.9910   -0.6391   -0.8588 H   0  0  0  0  0  0  0  0  0  0  0  0
   -1.7631   -0.5270    2.2461 H   0  0  0  0  0  0  0  0  0  0  0  0
    0.0031   -1.8803   -1.2827 H   0  0  0  0  0  0  0  0  0  0  0  0
    0.4387   -1.9881    0.4609 H   0  0  0  0  0  0  0  0  0  0  0  0
  1  2  2  0  0  0  0
  2  3  1  0  0  0  0
  2  9  1  0  0  0  0
  3  4  1  0  0  0  0
  3 10  1  0  0  0  0
  3 11  1  0  0  0  0
  4  5  1  0  0  0  0
  4 12  1  0  0  0  0
  5  9  1  0  0  0  0
  5  6  1  0  0  0  0
  5 13  1  6  0  0  0
  6  7  2  0  0  0  0
  6  8  1  0  0  0  0
  8 14  1  0  0  0  0
  9 15  1  0  0  0  0
  9 16  1  0  0  0  0
M  END
$$$$
