CHEBI:17052
 OpenBabel04242415473D

 27 27  0  0  1  0  0  0  0  0999 V2000
    2.0880   -0.9649   -0.0527 O   0  0  0  0  0  0  0  0  0  0  0  0
    2.4385    0.1508   -0.3945 C   0  0  0  0  0  0  0  0  0  0  0  0
    2.2046    0.6575   -1.6211 O   0  0  0  0  0  0  0  0  0  0  0  0
    3.1184    1.1008    0.5198 C   0  0  0  0  0  0  0  0  0  0  0  0
    4.0927    1.9236    0.0855 C   0  0  0  0  0  0  0  0  0  0  0  0
    4.8217    2.8781    0.9894 C   0  0  1  0  0  0  0  0  0  0  0  0
    4.2190    4.1425    0.7605 O   0  0  0  0  0  0  0  0  0  0  0  0
    5.1277    5.4486    0.6461 P   0  0  0  0  0  0  0  0  0  0  0  0
    4.4258    6.7166    0.3131 O   0  0  0  0  0  0  0  0  0  0  0  0
    5.9269    5.5342    2.0256 O   0  0  0  0  0  0  0  0  0  0  0  0
    6.2833    5.0889   -0.3915 O   0  0  0  0  0  0  0  0  0  0  0  0
    4.7058    2.4641    2.4734 C   0  0  1  0  0  0  0  0  0  0  0  0
    5.1693    3.4751    3.3832 O   0  0  0  0  0  0  0  0  0  0  0  0
    3.2488    2.1480    2.8370 C   0  0  2  0  0  0  0  0  0  0  0  0
    3.1884    1.7507    4.2123 O   0  0  0  0  0  0  0  0  0  0  0  0
    2.6761    1.0314    1.9585 C   0  0  0  0  0  0  0  0  0  0  0  0
    2.3752    1.6142   -1.6939 H   0  0  0  0  0  0  0  0  0  0  0  0
    4.4186    1.9184   -0.9521 H   0  0  0  0  0  0  0  0  0  0  0  0
    5.8819    2.9041    0.7148 H   0  0  0  0  0  0  0  0  0  0  0  0
    5.4359    6.1051    2.6532 H   0  0  0  0  0  0  0  0  0  0  0  0
    6.6901    5.9023   -0.7451 H   0  0  0  0  0  0  0  0  0  0  0  0
    5.3259    1.5774    2.6590 H   0  0  0  0  0  0  0  0  0  0  0  0
    5.9317    3.9263    2.9649 H   0  0  0  0  0  0  0  0  0  0  0  0
    2.6370    3.0542    2.7480 H   0  0  0  0  0  0  0  0  0  0  0  0
    3.7731    2.3768    4.6854 H   0  0  0  0  0  0  0  0  0  0  0  0
    1.5808    1.0764    2.0168 H   0  0  0  0  0  0  0  0  0  0  0  0
    2.9594    0.0558    2.3746 H   0  0  0  0  0  0  0  0  0  0  0  0
  1  2  2  0  0  0  0
  2  3  1  0  0  0  0
  2  4  1  0  0  0  0
  3 17  1  0  0  0  0
  4  5  2  0  0  0  0
  4 16  1  0  0  0  0
  5  6  1  0  0  0  0
  5 18  1  0  0  0  0
  6 12  1  0  0  0  0
  6  7  1  0  0  0  0
  6 19  1  6  0  0  0
  7  8  1  0  0  0  0
  8  9  2  0  0  0  0
  8 10  1  0  0  0  0
  8 11  1  0  0  0  0
 10 20  1  0  0  0  0
 11 21  1  0  0  0  0
 12 14  1  0  0  0  0
 12 13  1  0  0  0  0
 12 22  1  1  0  0  0
 13 23  1  0  0  0  0
 14 16  1  0  0  0  0
 14 15  1  0  0  0  0
 14 24  1  6  0  0  0
 15 25  1  0  0  0  0
 16 26  1  0  0  0  0
 16 27  1  0  0  0  0
M  END
$$$$
