CHEBI:16076
 OpenBabel04242413463D

 54 57  0  0  1  0  0  0  0  0999 V2000
    3.3157   -1.0401    3.0906 C   0  0  0  0  0  0  0  0  0  0  0  0
    3.9050   -1.9268    2.0211 C   0  0  0  0  0  0  0  0  0  0  0  0
    4.4827   -2.9675    2.3267 O   0  0  0  0  0  0  0  0  0  0  0  0
    3.7905   -1.4155    0.5862 C   0  0  1  0  0  0  0  0  0  0  0  0
    4.9404   -0.4666    0.2379 C   0  0  0  0  0  0  0  0  0  0  0  0
    5.1511   -0.5902   -1.2733 C   0  0  0  0  0  0  0  0  0  0  0  0
    4.0563   -1.5447   -1.7967 C   0  0  1  0  0  0  0  0  0  0  0  0
    2.8227   -0.7762   -2.3605 C   0  0  2  0  0  0  0  0  0  0  0  0
    3.2121   -0.0752   -3.6902 C   0  0  0  0  0  0  0  0  0  0  0  0
    2.0354    0.5654   -4.4235 C   0  0  0  0  0  0  0  0  0  0  0  0
    0.9558   -0.4690   -4.5907 C   0  0  0  0  0  0  0  0  0  0  0  0
    0.6487   -0.9347   -5.8143 C   0  0  0  0  0  0  0  0  0  0  0  0
   -0.1939   -2.1416   -5.9863 C   0  0  0  0  0  0  0  0  0  0  0  0
   -0.5023   -2.5096   -7.1163 O   0  0  0  0  0  0  0  0  0  0  0  0
   -0.5299   -2.9394   -4.7522 C   0  0  0  0  0  0  0  0  0  0  0  0
   -0.7959   -1.9932   -3.5936 C   0  0  0  0  0  0  0  0  0  0  0  0
    0.3862   -1.0281   -3.2823 C   0  0  1  0  0  0  0  0  0  0  0  0
   -0.2342    0.1265   -2.4563 C   0  0  0  0  0  0  0  0  0  0  0  0
    1.5989   -1.7335   -2.5590 C   0  0  1  0  0  0  0  0  0  0  0  0
    1.2488   -2.4584   -1.2395 C   0  0  2  0  0  0  0  0  0  0  0  0
    0.7260   -1.6107   -0.2265 O   0  0  0  0  0  0  0  0  0  0  0  0
    2.4468   -3.2316   -0.6854 C   0  0  0  0  0  0  0  0  0  0  0  0
    3.7698   -2.4513   -0.5675 C   0  0  2  0  0  0  0  0  0  0  0  0
    4.9084   -3.5007   -0.4495 C   0  0  0  0  0  0  0  0  0  0  0  0
    3.4509   -1.5052    4.0711 H   0  0  0  0  0  0  0  0  0  0  0  0
    2.2458   -0.9093    2.9102 H   0  0  0  0  0  0  0  0  0  0  0  0
    3.8216   -0.0717    3.0857 H   0  0  0  0  0  0  0  0  0  0  0  0
    2.8710   -0.8251    0.5565 H   0  0  0  0  0  0  0  0  0  0  0  0
    5.8625   -0.7165    0.7753 H   0  0  0  0  0  0  0  0  0  0  0  0
    4.6827    0.5633    0.5107 H   0  0  0  0  0  0  0  0  0  0  0  0
    6.1406   -1.0232   -1.4652 H   0  0  0  0  0  0  0  0  0  0  0  0
    5.1474    0.3941   -1.7474 H   0  0  0  0  0  0  0  0  0  0  0  0
    4.4674   -2.1487   -2.6168 H   0  0  0  0  0  0  0  0  0  0  0  0
    2.5498    0.0121   -1.6494 H   0  0  0  0  0  0  0  0  0  0  0  0
    3.6848   -0.8078   -4.3587 H   0  0  0  0  0  0  0  0  0  0  0  0
    3.9613    0.7025   -3.5083 H   0  0  0  0  0  0  0  0  0  0  0  0
    2.3827    0.9438   -5.3928 H   0  0  0  0  0  0  0  0  0  0  0  0
    1.6621    1.4362   -3.8747 H   0  0  0  0  0  0  0  0  0  0  0  0
    1.0774   -0.5338   -6.7262 H   0  0  0  0  0  0  0  0  0  0  0  0
    0.2910   -3.6304   -4.5379 H   0  0  0  0  0  0  0  0  0  0  0  0
   -1.4318   -3.5275   -4.9539 H   0  0  0  0  0  0  0  0  0  0  0  0
   -1.0900   -2.5651   -2.7082 H   0  0  0  0  0  0  0  0  0  0  0  0
   -1.6827   -1.3971   -3.8582 H   0  0  0  0  0  0  0  0  0  0  0  0
   -0.8927    0.7443   -3.0801 H   0  0  0  0  0  0  0  0  0  0  0  0
    0.5131    0.7967   -2.0231 H   0  0  0  0  0  0  0  0  0  0  0  0
   -0.8508   -0.2540   -1.6350 H   0  0  0  0  0  0  0  0  0  0  0  0
    1.9486   -2.5235   -3.2430 H   0  0  0  0  0  0  0  0  0  0  0  0
    0.4704   -3.2032   -1.4314 H   0  0  0  0  0  0  0  0  0  0  0  0
    1.0277   -0.7015   -0.3717 H   0  0  0  0  0  0  0  0  0  0  0  0
    2.6082   -4.0889   -1.3541 H   0  0  0  0  0  0  0  0  0  0  0  0
    2.1876   -3.6483    0.2966 H   0  0  0  0  0  0  0  0  0  0  0  0
    4.6726   -4.2688    0.2944 H   0  0  0  0  0  0  0  0  0  0  0  0
    5.8695   -3.0545   -0.1760 H   0  0  0  0  0  0  0  0  0  0  0  0
    5.0515   -4.0269   -1.4009 H   0  0  0  0  0  0  0  0  0  0  0  0
  1  2  1  0  0  0  0
  1 25  1  0  0  0  0
  1 26  1  0  0  0  0
  1 27  1  0  0  0  0
  2  3  2  0  0  0  0
  4  5  1  0  0  0  0
  4 23  1  0  0  0  0
  4  2  1  0  0  0  0
  4 28  1  6  0  0  0
  5  6  1  0  0  0  0
  5 29  1  0  0  0  0
  5 30  1  0  0  0  0
  6  7  1  0  0  0  0
  6 31  1  0  0  0  0
  6 32  1  0  0  0  0
  7  8  1  0  0  0  0
  7 23  1  0  0  0  0
  7 33  1  1  0  0  0
  8  9  1  0  0  0  0
  8 19  1  0  0  0  0
  8 34  1  6  0  0  0
  9 10  1  0  0  0  0
  9 35  1  0  0  0  0
  9 36  1  0  0  0  0
 10 11  1  0  0  0  0
 10 37  1  0  0  0  0
 10 38  1  0  0  0  0
 11 12  2  0  0  0  0
 11 17  1  0  0  0  0
 12 13  1  0  0  0  0
 12 39  1  0  0  0  0
 13 15  1  0  0  0  0
 13 14  2  0  0  0  0
 15 16  1  0  0  0  0
 15 40  1  0  0  0  0
 15 41  1  0  0  0  0
 16 17  1  0  0  0  0
 16 42  1  0  0  0  0
 16 43  1  0  0  0  0
 17 19  1  0  0  0  0
 17 18  1  6  0  0  0
 18 44  1  0  0  0  0
 18 45  1  0  0  0  0
 18 46  1  0  0  0  0
 19 20  1  0  0  0  0
 19 47  1  1  0  0  0
 20 22  1  0  0  0  0
 20 21  1  0  0  0  0
 20 48  1  6  0  0  0
 21 49  1  0  0  0  0
 22 23  1  0  0  0  0
 22 50  1  0  0  0  0
 22 51  1  0  0  0  0
 23 24  1  1  0  0  0
 24 52  1  0  0  0  0
 24 53  1  0  0  0  0
 24 54  1  0  0  0  0
M  END
$$$$
