CHEBI:16449
 OpenBabel04242414273D

 13 12  0  0  0  0  0  0  0  0999 V2000
    0.9040   -0.2444    0.0394 C   0  0  0  0  0  0  0  0  0  0  0  0
    2.3966    0.0130   -0.0944 C   0  0  0  0  0  0  0  0  0  0  0  0
    3.0614   -1.1074   -0.8244 N   0  0  0  0  0  0  0  0  0  0  0  0
    2.6698    1.3231   -0.8524 C   0  0  0  0  0  0  0  0  0  0  0  0
    2.0863    2.3804   -0.6785 O   0  0  0  0  0  0  0  0  0  0  0  0
    3.6848    1.1651   -1.7438 O   0  0  0  0  0  0  0  0  0  0  0  0
    0.7110   -1.1878    0.5611 H   0  0  0  0  0  0  0  0  0  0  0  0
    0.4141   -0.2867   -0.9401 H   0  0  0  0  0  0  0  0  0  0  0  0
    0.4228    0.5581    0.6090 H   0  0  0  0  0  0  0  0  0  0  0  0
    2.8661    0.1060    0.8907 H   0  0  0  0  0  0  0  0  0  0  0  0
    2.4497   -1.3922   -1.5979 H   0  0  0  0  0  0  0  0  0  0  0  0
    3.0633   -1.9217   -0.2026 H   0  0  0  0  0  0  0  0  0  0  0  0
    3.9601    0.2166   -1.6674 H   0  0  0  0  0  0  0  0  0  0  0  0
  1  2  1  0  0  0  0
  1  7  1  0  0  0  0
  1  8  1  0  0  0  0
  1  9  1  0  0  0  0
  2  3  1  0  0  0  0
  2  4  1  0  0  0  0
  2 10  1  0  0  0  0
  3 11  1  0  0  0  0
  3 12  1  0  0  0  0
  4  5  2  0  0  0  0
  4  6  1  0  0  0  0
  6 13  1  0  0  0  0
M  END
$$$$
