CHEBI:4325
 OpenBabel04242410573D

 29 30  0  0  0  0  0  0  0  0999 V2000
    2.5518    1.1865   -0.9796 N   0  0  0  0  0  0  0  0  0  0  0  0
    1.1964    0.9433   -0.7299 C   0  0  0  0  0  0  0  0  0  0  0  0
    0.2151    1.6315   -1.4514 C   0  0  0  0  0  0  0  0  0  0  0  0
   -1.1377    1.4945   -1.1299 C   0  0  0  0  0  0  0  0  0  0  0  0
   -1.5051    0.6982   -0.0434 C   0  0  0  0  0  0  0  0  0  0  0  0
   -3.2242    0.5451    0.3808 S   0  0  0  0  0  0  0  0  0  0  0  0
   -3.8809   -0.0048   -0.7912 O   0  0  0  0  0  0  0  0  0  0  0  0
   -3.3107   -0.1275    1.6644 O   0  0  0  0  0  0  0  0  0  0  0  0
   -3.8509    2.1879    0.6418 C   0  0  0  0  0  0  0  0  0  0  0  0
   -4.8843    2.6773   -0.1578 C   0  0  0  0  0  0  0  0  0  0  0  0
   -5.3525    3.9773    0.0489 C   0  0  0  0  0  0  0  0  0  0  0  0
   -4.8311    4.7724    1.0751 C   0  0  0  0  0  0  0  0  0  0  0  0
   -5.2166    6.1129    1.1891 N   0  0  0  0  0  0  0  0  0  0  0  0
   -3.7599    4.2831    1.8305 C   0  0  0  0  0  0  0  0  0  0  0  0
   -3.2815    2.9849    1.6367 C   0  0  0  0  0  0  0  0  0  0  0  0
   -0.5364    0.0490    0.7227 C   0  0  0  0  0  0  0  0  0  0  0  0
    0.8121    0.1943    0.3874 C   0  0  0  0  0  0  0  0  0  0  0  0
    2.7512    1.4524   -1.9392 H   0  0  0  0  0  0  0  0  0  0  0  0
    3.1676    0.4474   -0.6541 H   0  0  0  0  0  0  0  0  0  0  0  0
    0.4990    2.2790   -2.2774 H   0  0  0  0  0  0  0  0  0  0  0  0
   -1.8856    2.0134   -1.7244 H   0  0  0  0  0  0  0  0  0  0  0  0
   -5.3221    2.0680   -0.9453 H   0  0  0  0  0  0  0  0  0  0  0  0
   -6.1351    4.3654   -0.5986 H   0  0  0  0  0  0  0  0  0  0  0  0
   -6.1604    6.2972    0.8622 H   0  0  0  0  0  0  0  0  0  0  0  0
   -5.0477    6.5119    2.1075 H   0  0  0  0  0  0  0  0  0  0  0  0
   -3.2913    4.9122    2.5835 H   0  0  0  0  0  0  0  0  0  0  0  0
   -2.4689    2.6133    2.2563 H   0  0  0  0  0  0  0  0  0  0  0  0
   -0.8139   -0.5585    1.5812 H   0  0  0  0  0  0  0  0  0  0  0  0
    1.5646   -0.2879    1.0068 H   0  0  0  0  0  0  0  0  0  0  0  0
  1  2  1  0  0  0  0
  1 18  1  0  0  0  0
  1 19  1  0  0  0  0
  2  3  1  0  0  0  0
  2 17  2  0  0  0  0
  3  4  2  0  0  0  0
  3 20  1  0  0  0  0
  4  5  1  0  0  0  0
  4 21  1  0  0  0  0
  5  6  1  0  0  0  0
  5 16  2  0  0  0  0
  6  7  2  0  0  0  0
  6  8  2  0  0  0  0
  6  9  1  0  0  0  0
  9 10  1  0  0  0  0
  9 15  2  0  0  0  0
 10 11  2  0  0  0  0
 10 22  1  0  0  0  0
 11 12  1  0  0  0  0
 11 23  1  0  0  0  0
 12 13  1  0  0  0  0
 12 14  2  0  0  0  0
 13 24  1  0  0  0  0
 13 25  1  0  0  0  0
 14 15  1  0  0  0  0
 14 26  1  0  0  0  0
 15 27  1  0  0  0  0
 16 17  1  0  0  0  0
 16 28  1  0  0  0  0
 17 29  1  0  0  0  0
M  END
$$$$
