CHEBI:15855
 OpenBabel04242413233D

 63 65  0  0  1  0  0  0  0  0999 V2000
    3.0222   -0.3288    4.6743 O   0  0  0  0  0  0  0  0  0  0  0  0
    3.9405   -0.3411    3.8648 C   0  0  0  0  0  0  0  0  0  0  0  0
    4.1565    0.7856    2.9503 C   0  0  0  0  0  0  0  0  0  0  0  0
    5.1474    0.7120    2.0607 C   0  0  0  0  0  0  0  0  0  0  0  0
    5.9670   -0.3974    1.9449 N   0  0  0  0  0  0  0  0  0  0  0  0
    7.0874   -0.4254    0.9937 C   0  0  2  0  0  0  0  0  0  0  0  0
    8.1367    0.3982    1.5433 O   0  0  0  0  0  0  0  0  0  0  0  0
    8.6895    1.2228    0.4973 C   0  0  2  0  0  0  0  0  0  0  0  0
    8.2945    2.6621    0.8332 C   0  0  0  0  0  0  0  0  0  0  0  0
    8.8872    3.6016   -0.0475 O   0  0  0  0  0  0  0  0  0  0  0  0
    8.5810    5.2272    0.4592 P   0  0  0  0  0  0  0  0  0  0  0  0
    8.3873    5.6346   -1.0003 O   0  0  0  0  0  0  0  0  0  0  0  0
   10.1889    5.4437    0.7076 O   0  0  0  0  0  0  0  0  0  0  0  0
    8.2747    6.8527    0.9658 O   0  0  0  0  0  0  0  0  0  0  0  0
    8.5129    7.1137    2.5148 P   0  0  0  0  0  0  0  0  0  0  0  0
    8.1975    5.9227    3.3659 O   0  0  0  0  0  0  0  0  0  0  0  0
   10.0590    7.5196    2.5546 O   0  0  0  0  0  0  0  0  0  0  0  0
    7.7477    8.4847    2.7866 O   0  0  0  0  0  0  0  0  0  0  0  0
    7.1668    8.7631    4.0482 C   0  0  1  0  0  0  0  0  0  0  0  0
    6.3394    7.6700    4.4193 O   0  0  0  0  0  0  0  0  0  0  0  0
    6.4215    7.1832    5.7692 C   0  0  2  0  0  0  0  0  0  0  0  0
    5.5413    5.9320    5.7442 C   0  0  0  0  0  0  0  0  0  0  0  0
    5.5725    4.9277    7.2048 S   0  0  0  0  0  0  0  0  0  0  0  0
    6.0474    5.7118    8.3186 O   0  0  0  0  0  0  0  0  0  0  0  0
    4.3379    4.1754    7.2611 O   0  0  0  0  0  0  0  0  0  0  0  0
    6.7488    3.9070    6.7681 O   0  0  0  0  0  0  0  0  0  0  0  0
    7.8809    6.9671    6.2539 C   0  0  1  0  0  0  0  0  0  0  0  0
    8.3461    5.6434    5.9334 O   0  0  0  0  0  0  0  0  0  0  0  0
    8.8883    7.9942    5.7068 C   0  0  2  0  0  0  0  0  0  0  0  0
    9.7731    8.4426    6.7458 O   0  0  0  0  0  0  0  0  0  0  0  0
    8.1830    9.2057    5.1157 C   0  0  1  0  0  0  0  0  0  0  0  0
    9.1336   10.1347    4.5912 O   0  0  0  0  0  0  0  0  0  0  0  0
    8.1289    0.7072   -0.8301 C   0  0  1  0  0  0  0  0  0  0  0  0
    8.9312   -0.3649   -1.3555 O   0  0  0  0  0  0  0  0  0  0  0  0
    6.7906    0.1107   -0.4242 C   0  0  1  0  0  0  0  0  0  0  0  0
    6.3548   -0.8818   -1.3508 O   0  0  0  0  0  0  0  0  0  0  0  0
    5.8402   -1.4725    2.8244 C   0  0  0  0  0  0  0  0  0  0  0  0
    6.5585   -2.4696    2.8224 O   0  0  0  0  0  0  0  0  0  0  0  0
    4.8229   -1.3725    3.7425 N   0  0  0  0  0  0  0  0  0  0  0  0
    3.5003    1.6404    3.0422 H   0  0  0  0  0  0  0  0  0  0  0  0
    5.3210    1.5495    1.3989 H   0  0  0  0  0  0  0  0  0  0  0  0
    7.4843   -1.4452    0.9211 H   0  0  0  0  0  0  0  0  0  0  0  0
    9.7804    1.1222    0.5223 H   0  0  0  0  0  0  0  0  0  0  0  0
    8.6006    2.8939    1.8605 H   0  0  0  0  0  0  0  0  0  0  0  0
    7.2079    2.7883    0.7935 H   0  0  0  0  0  0  0  0  0  0  0  0
   10.5557    5.6669   -0.1766 H   0  0  0  0  0  0  0  0  0  0  0  0
   10.6239    6.8105    2.1823 H   0  0  0  0  0  0  0  0  0  0  0  0
    6.5001    9.6136    3.8652 H   0  0  0  0  0  0  0  0  0  0  0  0
    5.9558    7.9423    6.4105 H   0  0  0  0  0  0  0  0  0  0  0  0
    4.4979    6.2417    5.6029 H   0  0  0  0  0  0  0  0  0  0  0  0
    5.7675    5.2891    4.8849 H   0  0  0  0  0  0  0  0  0  0  0  0
    7.6117    4.3914    6.7083 H   0  0  0  0  0  0  0  0  0  0  0  0
    7.8967    7.0134    7.3469 H   0  0  0  0  0  0  0  0  0  0  0  0
    8.3659    5.5826    4.9449 H   0  0  0  0  0  0  0  0  0  0  0  0
    9.5563    7.5452    4.9704 H   0  0  0  0  0  0  0  0  0  0  0  0
   10.2910    7.6657    7.0315 H   0  0  0  0  0  0  0  0  0  0  0  0
    7.6538    9.7273    5.9233 H   0  0  0  0  0  0  0  0  0  0  0  0
    9.8439   10.1986    5.2602 H   0  0  0  0  0  0  0  0  0  0  0  0
    8.0370    1.4701   -1.6087 H   0  0  0  0  0  0  0  0  0  0  0  0
    9.3837   -0.0281   -2.1516 H   0  0  0  0  0  0  0  0  0  0  0  0
    6.0380    0.9005   -0.4246 H   0  0  0  0  0  0  0  0  0  0  0  0
    7.1714   -1.3033   -1.6913 H   0  0  0  0  0  0  0  0  0  0  0  0
    4.7105   -2.1466    4.3777 H   0  0  0  0  0  0  0  0  0  0  0  0
  1  2  2  0  0  0  0
  2  3  1  0  0  0  0
  2 39  1  0  0  0  0
  3  4  2  0  0  0  0
  3 40  1  0  0  0  0
  4  5  1  0  0  0  0
  4 41  1  0  0  0  0
  5  6  1  0  0  0  0
  5 37  1  0  0  0  0
  6  7  1  0  0  0  0
  6 35  1  0  0  0  0
  6 42  1  6  0  0  0
  7  8  1  0  0  0  0
  8  9  1  0  0  0  0
  8 33  1  0  0  0  0
  8 43  1  6  0  0  0
  9 10  1  0  0  0  0
  9 44  1  0  0  0  0
  9 45  1  0  0  0  0
 10 11  1  0  0  0  0
 11 12  2  0  0  0  0
 11 13  1  0  0  0  0
 11 14  1  0  0  0  0
 13 46  1  0  0  0  0
 14 15  1  0  0  0  0
 15 16  2  0  0  0  0
 15 17  1  0  0  0  0
 15 18  1  0  0  0  0
 17 47  1  0  0  0  0
 18 19  1  0  0  0  0
 19 20  1  0  0  0  0
 19 31  1  0  0  0  0
 19 48  1  6  0  0  0
 20 21  1  0  0  0  0
 21 27  1  0  0  0  0
 21 22  1  0  0  0  0
 21 49  1  6  0  0  0
 22 23  1  0  0  0  0
 22 50  1  0  0  0  0
 22 51  1  0  0  0  0
 23 24  2  0  0  0  0
 23 25  2  0  0  0  0
 23 26  1  0  0  0  0
 26 52  1  0  0  0  0
 27 28  1  0  0  0  0
 27 29  1  0  0  0  0
 27 53  1  1  0  0  0
 28 54  1  0  0  0  0
 29 30  1  0  0  0  0
 29 31  1  0  0  0  0
 29 55  1  6  0  0  0
 30 56  1  0  0  0  0
 31 32  1  0  0  0  0
 31 57  1  1  0  0  0
 32 58  1  0  0  0  0
 33 34  1  0  0  0  0
 33 35  1  0  0  0  0
 33 59  1  6  0  0  0
 34 60  1  0  0  0  0
 35 36  1  0  0  0  0
 35 61  1  1  0  0  0
 36 62  1  0  0  0  0
 37 38  2  0  0  0  0
 37 39  1  0  0  0  0
 39 63  1  0  0  0  0
M  END
$$$$
