CHEBI:27459
 OpenBabel04252410123D

 31 31  0  0  1  0  0  0  0  0999 V2000
    5.2649   -2.7194   -0.7808 O   0  0  0  0  0  0  0  0  0  0  0  0
    6.2018   -2.2589   -1.4248 C   0  0  0  0  0  0  0  0  0  0  0  0
    7.6608   -2.6533   -1.1962 C   0  0  0  0  0  0  0  0  0  0  0  0
    8.4538   -2.4862   -2.3664 O   0  0  0  0  0  0  0  0  0  0  0  0
    6.0271   -1.3300   -2.4189 N   0  0  0  0  0  0  0  0  0  0  0  0
    4.7175   -0.8126   -2.8408 C   0  0  1  0  0  0  0  0  0  0  0  0
    4.8980    0.4774   -3.6785 C   0  0  0  0  0  0  0  0  0  0  0  0
    5.8204    0.2451   -4.7369 O   0  0  0  0  0  0  0  0  0  0  0  0
    3.6774    0.9710   -4.2091 O   0  0  0  0  0  0  0  0  0  0  0  0
    2.9994    0.0229   -5.0434 C   0  0  2  0  0  0  0  0  0  0  0  0
    1.7349    0.6824   -5.6147 C   0  0  0  0  0  0  0  0  0  0  0  0
    1.1006   -0.1285   -6.5979 O   0  0  0  0  0  0  0  0  0  0  0  0
    2.6495   -1.2318   -4.2372 C   0  0  1  0  0  0  0  0  0  0  0  0
    1.9696   -2.2015   -5.0461 O   0  0  0  0  0  0  0  0  0  0  0  0
    3.9143   -1.8602   -3.6398 C   0  0  2  0  0  0  0  0  0  0  0  0
    3.4653   -2.9693   -2.8369 O   0  0  0  0  0  0  0  0  0  0  0  0
    7.7096   -3.7010   -0.8854 H   0  0  0  0  0  0  0  0  0  0  0  0
    8.0702   -2.0206   -0.4038 H   0  0  0  0  0  0  0  0  0  0  0  0
    8.2242   -3.2186   -2.9666 H   0  0  0  0  0  0  0  0  0  0  0  0
    6.8311   -1.1387   -3.0168 H   0  0  0  0  0  0  0  0  0  0  0  0
    4.1510   -0.5779   -1.9301 H   0  0  0  0  0  0  0  0  0  0  0  0
    5.3270    1.2566   -3.0382 H   0  0  0  0  0  0  0  0  0  0  0  0
    6.0403    1.1301   -5.0783 H   0  0  0  0  0  0  0  0  0  0  0  0
    3.6359   -0.2522   -5.8949 H   0  0  0  0  0  0  0  0  0  0  0  0
    1.0137    0.8992   -4.8189 H   0  0  0  0  0  0  0  0  0  0  0  0
    1.9872    1.6418   -6.0790 H   0  0  0  0  0  0  0  0  0  0  0  0
    1.1141   -1.0497   -6.2577 H   0  0  0  0  0  0  0  0  0  0  0  0
    1.9652   -0.9708   -3.4193 H   0  0  0  0  0  0  0  0  0  0  0  0
    1.9980   -3.0268   -4.5151 H   0  0  0  0  0  0  0  0  0  0  0  0
    4.5320   -2.2948   -4.4353 H   0  0  0  0  0  0  0  0  0  0  0  0
    4.0056   -2.9977   -2.0169 H   0  0  0  0  0  0  0  0  0  0  0  0
  1  2  2  0  0  0  0
  2  3  1  0  0  0  0
  2  5  1  0  0  0  0
  3  4  1  0  0  0  0
  3 17  1  0  0  0  0
  3 18  1  0  0  0  0
  4 19  1  0  0  0  0
  5 20  1  0  0  0  0
  6  7  1  0  0  0  0
  6 15  1  0  0  0  0
  6  5  1  0  0  0  0
  6 21  1  1  0  0  0
  7  8  1  0  0  0  0
  7  9  1  0  0  0  0
  7 22  1  0  0  0  0
  8 23  1  0  0  0  0
  9 10  1  0  0  0  0
 10 13  1  0  0  0  0
 10 11  1  0  0  0  0
 10 24  1  6  0  0  0
 11 12  1  0  0  0  0
 11 25  1  0  0  0  0
 11 26  1  0  0  0  0
 12 27  1  0  0  0  0
 13 14  1  0  0  0  0
 13 15  1  0  0  0  0
 13 28  1  1  0  0  0
 14 29  1  0  0  0  0
 15 16  1  0  0  0  0
 15 30  1  6  0  0  0
 16 31  1  0  0  0  0
M  END
$$$$
