CHEBI:15645
 OpenBabel04242412593D

 45 47  0  0  1  0  0  0  0  0999 V2000
    1.0033    0.1750    0.7578 C   0  0  0  0  0  0  0  0  0  0  0  0
    2.4099    0.0040    0.4462 N   0  0  0  0  0  0  0  0  0  0  0  0
    2.7714   -1.2293   -0.2613 C   0  0  1  0  0  0  0  0  0  0  0  0
    2.0781   -1.3416   -1.6342 C   0  0  0  0  0  0  0  0  0  0  0  0
    2.3413   -0.1313   -2.5472 C   0  0  2  0  0  0  0  0  0  0  0  0
    3.6166   -0.2848   -3.2109 O   0  0  0  0  0  0  0  0  0  0  0  0
    3.6523   -1.1353   -4.2778 C   0  0  0  0  0  0  0  0  0  0  0  0
    2.6751   -1.6937   -4.7577 O   0  0  0  0  0  0  0  0  0  0  0  0
    5.0799   -1.3162   -4.7587 C   0  0  0  0  0  0  0  0  0  0  0  0
    5.2658   -2.7703   -5.2138 C   0  0  0  0  0  0  0  0  0  0  0  0
    6.6428   -3.0663   -5.4491 O   0  0  0  0  0  0  0  0  0  0  0  0
    5.4580   -0.3177   -5.8389 C   0  0  0  0  0  0  0  0  0  0  0  0
    6.5530    0.5384   -5.6416 C   0  0  0  0  0  0  0  0  0  0  0  0
    6.9421    1.4355   -6.6371 C   0  0  0  0  0  0  0  0  0  0  0  0
    6.2425    1.4887   -7.8401 C   0  0  0  0  0  0  0  0  0  0  0  0
    5.1504    0.6489   -8.0472 C   0  0  0  0  0  0  0  0  0  0  0  0
    4.7579   -0.2487   -7.0530 C   0  0  0  0  0  0  0  0  0  0  0  0
    2.3804    1.1888   -1.7623 C   0  0  0  0  0  0  0  0  0  0  0  0
    3.0313    1.0604   -0.3719 C   0  0  2  0  0  0  0  0  0  0  0  0
    4.4681    0.4985   -0.4419 C   0  0  1  0  0  0  0  0  0  0  0  0
    5.2048    0.9113    0.7138 O   0  0  0  0  0  0  0  0  0  0  0  0
    4.2898   -1.0290   -0.3903 C   0  0  0  0  0  0  0  0  0  0  0  0
    0.6549   -0.6550    1.3825 H   0  0  0  0  0  0  0  0  0  0  0  0
    0.3506    0.2307   -0.1176 H   0  0  0  0  0  0  0  0  0  0  0  0
    0.8587    1.0898    1.3425 H   0  0  0  0  0  0  0  0  0  0  0  0
    2.5547   -2.1194    0.3396 H   0  0  0  0  0  0  0  0  0  0  0  0
    0.9968   -1.4445   -1.4843 H   0  0  0  0  0  0  0  0  0  0  0  0
    2.4122   -2.2672   -2.1174 H   0  0  0  0  0  0  0  0  0  0  0  0
    1.5605   -0.0538   -3.3141 H   0  0  0  0  0  0  0  0  0  0  0  0
    5.7411   -1.1708   -3.8927 H   0  0  0  0  0  0  0  0  0  0  0  0
    4.7006   -3.0070   -6.1220 H   0  0  0  0  0  0  0  0  0  0  0  0
    4.9222   -3.4568   -4.4314 H   0  0  0  0  0  0  0  0  0  0  0  0
    6.9225   -2.5331   -6.2164 H   0  0  0  0  0  0  0  0  0  0  0  0
    7.1194    0.5089   -4.7121 H   0  0  0  0  0  0  0  0  0  0  0  0
    7.7940    2.0910   -6.4742 H   0  0  0  0  0  0  0  0  0  0  0  0
    6.5482    2.1854   -8.6164 H   0  0  0  0  0  0  0  0  0  0  0  0
    4.6034    0.6918   -8.9858 H   0  0  0  0  0  0  0  0  0  0  0  0
    3.9010   -0.8944   -7.2397 H   0  0  0  0  0  0  0  0  0  0  0  0
    1.3561    1.5619   -1.6423 H   0  0  0  0  0  0  0  0  0  0  0  0
    2.9243    1.9471   -2.3394 H   0  0  0  0  0  0  0  0  0  0  0  0
    3.0072    2.0219    0.1535 H   0  0  0  0  0  0  0  0  0  0  0  0
    5.0231    0.8313   -1.3235 H   0  0  0  0  0  0  0  0  0  0  0  0
    4.6316    0.6939    1.4745 H   0  0  0  0  0  0  0  0  0  0  0  0
    4.8068   -1.4527    0.4797 H   0  0  0  0  0  0  0  0  0  0  0  0
    4.6965   -1.5202   -1.2796 H   0  0  0  0  0  0  0  0  0  0  0  0
  1  2  1  0  0  0  0
  1 23  1  0  0  0  0
  1 24  1  0  0  0  0
  1 25  1  0  0  0  0
  2  3  1  0  0  0  0
  2 19  1  0  0  0  0
  3  4  1  0  0  0  0
  3 22  1  0  0  0  0
  3 26  1  1  0  0  0
  4  5  1  0  0  0  0
  4 27  1  0  0  0  0
  4 28  1  0  0  0  0
  5  6  1  0  0  0  0
  5 18  1  0  0  0  0
  5 29  1  6  0  0  0
  6  7  1  0  0  0  0
  7  8  2  0  0  0  0
  7  9  1  0  0  0  0
  9 10  1  0  0  0  0
  9 12  1  0  0  0  0
  9 30  1  0  0  0  0
 10 11  1  0  0  0  0
 10 31  1  0  0  0  0
 10 32  1  0  0  0  0
 11 33  1  0  0  0  0
 12 13  1  0  0  0  0
 12 17  2  0  0  0  0
 13 14  2  0  0  0  0
 13 34  1  0  0  0  0
 14 15  1  0  0  0  0
 14 35  1  0  0  0  0
 15 16  2  0  0  0  0
 15 36  1  0  0  0  0
 16 17  1  0  0  0  0
 16 37  1  0  0  0  0
 17 38  1  0  0  0  0
 18 19  1  0  0  0  0
 18 39  1  0  0  0  0
 18 40  1  0  0  0  0
 19 20  1  0  0  0  0
 19 41  1  1  0  0  0
 20 21  1  0  0  0  0
 20 22  1  0  0  0  0
 20 42  1  6  0  0  0
 21 43  1  0  0  0  0
 22 44  1  0  0  0  0
 22 45  1  0  0  0  0
M  END
$$$$
