CHEBI:4495
 OpenBabel04242410583D

 21 22  0  0  0  0  0  0  0  0999 V2000
    0.9590    0.1470    0.0790 C   0  0  0  0  0  0  0  0  0  0  0  0
    2.4572    0.0642    0.0373 C   0  0  0  0  0  0  0  0  0  0  0  0
    3.1614    1.1360   -0.0926 N   0  0  0  0  0  0  0  0  0  0  0  0
    4.5612    1.1210   -0.0279 C   0  0  0  0  0  0  0  0  0  0  0  0
    5.2094    2.3607    0.0232 C   0  0  0  0  0  0  0  0  0  0  0  0
    6.6033    2.4470    0.1190 C   0  0  0  0  0  0  0  0  0  0  0  0
    7.3677    1.2834    0.1665 C   0  0  0  0  0  0  0  0  0  0  0  0
    9.0790    1.3880    0.2880 Cl  0  0  0  0  0  0  0  0  0  0  0  0
    6.7518    0.0394    0.1131 C   0  0  0  0  0  0  0  0  0  0  0  0
    5.3573   -0.0190    0.0103 C   0  0  0  0  0  0  0  0  0  0  0  0
    4.5783   -1.5705   -0.0908 S   0  0  0  0  0  0  0  0  0  0  0  0
    4.6976   -2.0471   -1.4498 O   0  0  0  0  0  0  0  0  0  0  0  0
    5.0161   -2.3676    1.0341 O   0  0  0  0  0  0  0  0  0  0  0  0
    2.9888   -1.2142    0.1837 N   0  0  0  0  0  0  0  0  0  0  0  0
    0.6238    1.1765   -0.0722 H   0  0  0  0  0  0  0  0  0  0  0  0
    0.6021   -0.2086    1.0499 H   0  0  0  0  0  0  0  0  0  0  0  0
    0.5364   -0.4884   -0.7046 H   0  0  0  0  0  0  0  0  0  0  0  0
    4.6181    3.2740   -0.0070 H   0  0  0  0  0  0  0  0  0  0  0  0
    7.0800    3.4233    0.1583 H   0  0  0  0  0  0  0  0  0  0  0  0
    7.3414   -0.8738    0.1435 H   0  0  0  0  0  0  0  0  0  0  0  0
    2.4299   -1.9987    0.5038 H   0  0  0  0  0  0  0  0  0  0  0  0
  1  2  1  0  0  0  0
  1 15  1  0  0  0  0
  1 16  1  0  0  0  0
  1 17  1  0  0  0  0
  2  3  2  0  0  0  0
  2 14  1  0  0  0  0
  3  4  1  0  0  0  0
  4  5  1  0  0  0  0
  4 10  2  0  0  0  0
  5  6  2  0  0  0  0
  5 18  1  0  0  0  0
  6  7  1  0  0  0  0
  6 19  1  0  0  0  0
  7  8  1  0  0  0  0
  7  9  2  0  0  0  0
  9 10  1  0  0  0  0
  9 20  1  0  0  0  0
 10 11  1  0  0  0  0
 11 12  2  0  0  0  0
 11 13  2  0  0  0  0
 11 14  1  0  0  0  0
 14 21  1  0  0  0  0
M  END
$$$$
