CHEBI:27452
 OpenBabel04252410033D

 16 16  0  0  0  0  0  0  0  0999 V2000
    1.6174   -0.3501    1.0364 C   0  0  0  0  0  0  0  0  0  0  0  0
    2.3141    0.1065   -0.0124 C   0  0  0  0  0  0  0  0  0  0  0  0
    3.0927    1.3529   -0.0229 C   0  0  0  0  0  0  0  0  0  0  0  0
    4.2380    1.4273   -0.8273 C   0  0  0  0  0  0  0  0  0  0  0  0
    4.9916    2.6025   -0.8899 C   0  0  0  0  0  0  0  0  0  0  0  0
    4.6015    3.7208   -0.1570 C   0  0  0  0  0  0  0  0  0  0  0  0
    3.4562    3.6661    0.6341 C   0  0  0  0  0  0  0  0  0  0  0  0
    2.7030    2.4902    0.6968 C   0  0  0  0  0  0  0  0  0  0  0  0
    1.0743   -1.2875    0.9669 H   0  0  0  0  0  0  0  0  0  0  0  0
    1.5789    0.1736    1.9856 H   0  0  0  0  0  0  0  0  0  0  0  0
    2.3366   -0.4799   -0.9283 H   0  0  0  0  0  0  0  0  0  0  0  0
    4.5599    0.5655   -1.4074 H   0  0  0  0  0  0  0  0  0  0  0  0
    5.8817    2.6432   -1.5122 H   0  0  0  0  0  0  0  0  0  0  0  0
    5.1862    4.6355   -0.2061 H   0  0  0  0  0  0  0  0  0  0  0  0
    3.1437    4.5399    1.1997 H   0  0  0  0  0  0  0  0  0  0  0  0
    1.8028    2.4790    1.3058 H   0  0  0  0  0  0  0  0  0  0  0  0
  1  2  2  0  0  0  0
  1  9  1  0  0  0  0
  1 10  1  0  0  0  0
  2  3  1  0  0  0  0
  2 11  1  0  0  0  0
  3  4  1  0  0  0  0
  3  8  2  0  0  0  0
  4  5  2  0  0  0  0
  4 12  1  0  0  0  0
  5  6  1  0  0  0  0
  5 13  1  0  0  0  0
  6  7  2  0  0  0  0
  6 14  1  0  0  0  0
  7  8  1  0  0  0  0
  7 15  1  0  0  0  0
  8 16  1  0  0  0  0
M  END
$$$$
