CHEBI:16034
 OpenBabel04242413393D

 20 19  0  0  0  0  0  0  0  0999 V2000
    4.6886   -1.3285    0.2262 N   0  0  0  0  0  0  0  0  0  0  0  0
    3.5525   -0.7931    0.5180 C   0  0  0  0  0  0  0  0  0  0  0  0
    3.3308    0.5256    0.7101 N   0  0  0  0  0  0  0  0  0  0  0  0
    4.2991    1.5899    0.4724 C   0  0  0  0  0  0  0  0  0  0  0  0
    3.6296    2.9556    0.4433 C   0  0  0  0  0  0  0  0  0  0  0  0
    4.1953    4.0351    0.5198 O   0  0  0  0  0  0  0  0  0  0  0  0
    2.2915    2.8972    0.2570 O   0  0  0  0  0  0  0  0  0  0  0  0
    2.4950   -1.6116    0.6493 N   0  0  0  0  0  0  0  0  0  0  0  0
    1.1252   -1.3605    1.4462 P   0  0  0  0  0  0  0  0  0  0  0  0
    0.3909   -0.0573    1.4383 O   0  0  0  0  0  0  0  0  0  0  0  0
    0.1136   -2.5181    0.9909 O   0  0  0  0  0  0  0  0  0  0  0  0
    1.3429   -1.8296    2.9621 O   0  0  0  0  0  0  0  0  0  0  0  0
    5.4118   -0.6131    0.1691 H   0  0  0  0  0  0  0  0  0  0  0  0
    2.3662    0.8530    0.6058 H   0  0  0  0  0  0  0  0  0  0  0  0
    4.7943    1.4496   -0.4934 H   0  0  0  0  0  0  0  0  0  0  0  0
    5.0381    1.5885    1.2795 H   0  0  0  0  0  0  0  0  0  0  0  0
    2.0038    3.8343    0.2334 H   0  0  0  0  0  0  0  0  0  0  0  0
    2.7895   -2.5730    0.5760 H   0  0  0  0  0  0  0  0  0  0  0  0
   -0.7986   -2.3231    1.2681 H   0  0  0  0  0  0  0  0  0  0  0  0
    0.6281   -1.5160    3.5427 H   0  0  0  0  0  0  0  0  0  0  0  0
  1  2  2  0  0  0  0
  1 13  1  0  0  0  0
  2  3  1  0  0  0  0
  2  8  1  0  0  0  0
  3  4  1  0  0  0  0
  3 14  1  0  0  0  0
  4  5  1  0  0  0  0
  4 15  1  0  0  0  0
  4 16  1  0  0  0  0
  5  6  2  0  0  0  0
  5  7  1  0  0  0  0
  7 17  1  0  0  0  0
  8  9  1  0  0  0  0
  8 18  1  0  0  0  0
  9 10  2  0  0  0  0
  9 11  1  0  0  0  0
  9 12  1  0  0  0  0
 11 19  1  0  0  0  0
 12 20  1  0  0  0  0
M  END
$$$$
