CHEBI:18010
 OpenBabel04242423243D

 38 40  0  0  0  0  0  0  0  0999 V2000
    3.0845   -1.4684    0.8568 C   0  0  0  0  0  0  0  0  0  0  0  0
    2.8697   -0.7760   -0.3679 O   0  0  0  0  0  0  0  0  0  0  0  0
    3.7002   -1.0858   -1.4085 C   0  0  0  0  0  0  0  0  0  0  0  0
    3.4884   -0.3376   -2.5687 C   0  0  0  0  0  0  0  0  0  0  0  0
    4.2773   -0.5461   -3.7050 C   0  0  0  0  0  0  0  0  0  0  0  0
    4.0176    0.1917   -4.8244 O   0  0  0  0  0  0  0  0  0  0  0  0
    5.2931   -1.5091   -3.6948 C   0  0  0  0  0  0  0  0  0  0  0  0
    6.2042   -1.7500   -4.8399 C   0  0  0  0  0  0  0  0  0  0  0  0
    6.2525   -0.9890   -5.7989 O   0  0  0  0  0  0  0  0  0  0  0  0
    7.0946   -2.9542   -4.7506 C   0  0  0  0  0  0  0  0  0  0  0  0
    7.8948   -3.3773   -5.8053 O   0  0  0  0  0  0  0  0  0  0  0  0
    7.4101   -3.1007   -7.1145 C   0  0  0  0  0  0  0  0  0  0  0  0
    7.1329   -3.6024   -3.5714 C   0  0  0  0  0  0  0  0  0  0  0  0
    7.9809   -4.7845   -3.3579 C   0  0  0  0  0  0  0  0  0  0  0  0
    9.3514   -4.6405   -3.0839 C   0  0  0  0  0  0  0  0  0  0  0  0
   10.1533   -5.7633   -2.8532 C   0  0  0  0  0  0  0  0  0  0  0  0
    9.5767   -7.0266   -2.9001 C   0  0  0  0  0  0  0  0  0  0  0  0
   10.3055   -8.1626   -2.6802 O   0  0  0  0  0  0  0  0  0  0  0  0
    8.2188   -7.1722   -3.1743 C   0  0  0  0  0  0  0  0  0  0  0  0
    7.6631   -8.4193   -3.2183 O   0  0  0  0  0  0  0  0  0  0  0  0
    7.4143   -6.0647   -3.4018 C   0  0  0  0  0  0  0  0  0  0  0  0
    6.4109   -3.2670   -2.4463 O   0  0  0  0  0  0  0  0  0  0  0  0
    5.4760   -2.2714   -2.5436 C   0  0  0  0  0  0  0  0  0  0  0  0
    4.6941   -2.0601   -1.4012 C   0  0  0  0  0  0  0  0  0  0  0  0
    2.3631   -1.0885    1.5866 H   0  0  0  0  0  0  0  0  0  0  0  0
    4.0887   -1.2752    1.2488 H   0  0  0  0  0  0  0  0  0  0  0  0
    2.9054   -2.5420    0.7387 H   0  0  0  0  0  0  0  0  0  0  0  0
    2.6979    0.4085   -2.5700 H   0  0  0  0  0  0  0  0  0  0  0  0
    3.3158    0.8382   -4.6478 H   0  0  0  0  0  0  0  0  0  0  0  0
    6.3314   -3.2699   -7.1994 H   0  0  0  0  0  0  0  0  0  0  0  0
    7.9092   -3.7874   -7.8052 H   0  0  0  0  0  0  0  0  0  0  0  0
    7.6806   -2.0845   -7.4153 H   0  0  0  0  0  0  0  0  0  0  0  0
    9.7980   -3.6488   -3.0483 H   0  0  0  0  0  0  0  0  0  0  0  0
   11.2088   -5.6283   -2.6414 H   0  0  0  0  0  0  0  0  0  0  0  0
   11.2266   -7.9014   -2.5088 H   0  0  0  0  0  0  0  0  0  0  0  0
    8.4096   -9.0255   -3.0398 H   0  0  0  0  0  0  0  0  0  0  0  0
    6.3576   -6.2027   -3.6109 H   0  0  0  0  0  0  0  0  0  0  0  0
    4.8858   -2.6764   -0.5287 H   0  0  0  0  0  0  0  0  0  0  0  0
  1  2  1  0  0  0  0
  1 25  1  0  0  0  0
  1 26  1  0  0  0  0
  1 27  1  0  0  0  0
  2  3  1  0  0  0  0
  3  4  1  0  0  0  0
  3 24  2  0  0  0  0
  4  5  2  0  0  0  0
  4 28  1  0  0  0  0
  5  6  1  0  0  0  0
  5  7  1  0  0  0  0
  6 29  1  0  0  0  0
  7  8  1  0  0  0  0
  7 23  2  0  0  0  0
  8  9  2  0  0  0  0
  8 10  1  0  0  0  0
 10 11  1  0  0  0  0
 10 13  2  0  0  0  0
 11 12  1  0  0  0  0
 12 30  1  0  0  0  0
 12 31  1  0  0  0  0
 12 32  1  0  0  0  0
 13 14  1  0  0  0  0
 13 22  1  0  0  0  0
 14 15  1  0  0  0  0
 14 21  2  0  0  0  0
 15 16  2  0  0  0  0
 15 33  1  0  0  0  0
 16 17  1  0  0  0  0
 16 34  1  0  0  0  0
 17 18  1  0  0  0  0
 17 19  2  0  0  0  0
 18 35  1  0  0  0  0
 19 20  1  0  0  0  0
 19 21  1  0  0  0  0
 20 36  1  0  0  0  0
 21 37  1  0  0  0  0
 22 23  1  0  0  0  0
 23 24  1  0  0  0  0
 24 38  1  0  0  0  0
M  END
$$$$
