CHEBI:17305
 OpenBabel04242416143D

 21 20  0  0  1  0  0  0  0  0999 V2000
   10.5549    3.9492    2.4356 O   0  0  0  0  0  0  0  0  0  0  0  0
    9.6251    4.0816    3.2051 C   0  0  0  0  0  0  0  0  0  0  0  0
    9.5196    5.0176    4.1650 O   0  0  0  0  0  0  0  0  0  0  0  0
    8.3931    3.1784    3.1919 C   0  0  0  0  0  0  0  0  0  0  0  0
    7.5382    3.3676    4.0525 O   0  0  0  0  0  0  0  0  0  0  0  0
    8.3505    2.1101    2.1354 C   0  0  0  0  0  0  0  0  0  0  0  0
    6.9379    1.5468    1.9572 C   0  0  2  0  0  0  0  0  0  0  0  0
    6.8848    0.9869    0.6310 O   0  0  0  0  0  0  0  0  0  0  0  0
    6.6243    0.4219    2.9554 C   0  0  2  0  0  0  0  0  0  0  0  0
    7.4665   -0.7192    2.6912 O   0  0  0  0  0  0  0  0  0  0  0  0
    5.1745   -0.0375    2.8145 C   0  0  0  0  0  0  0  0  0  0  0  0
    4.2265    0.6866    2.5554 O   0  0  0  0  0  0  0  0  0  0  0  0
    5.0581   -1.3788    2.9957 O   0  0  0  0  0  0  0  0  0  0  0  0
    8.6710    4.8998    4.6530 H   0  0  0  0  0  0  0  0  0  0  0  0
    9.0706    1.3275    2.3975 H   0  0  0  0  0  0  0  0  0  0  0  0
    8.6807    2.5544    1.1890 H   0  0  0  0  0  0  0  0  0  0  0  0
    6.1953    2.3519    2.0135 H   0  0  0  0  0  0  0  0  0  0  0  0
    5.9597    1.0730    0.3218 H   0  0  0  0  0  0  0  0  0  0  0  0
    6.7787    0.7286    3.9940 H   0  0  0  0  0  0  0  0  0  0  0  0
    7.5944   -0.7205    1.7156 H   0  0  0  0  0  0  0  0  0  0  0  0
    5.9606   -1.7522    3.1375 H   0  0  0  0  0  0  0  0  0  0  0  0
  1  2  2  0  0  0  0
  2  3  1  0  0  0  0
  2  4  1  0  0  0  0
  3 14  1  0  0  0  0
  4  5  2  0  0  0  0
  4  6  1  0  0  0  0
  6 15  1  0  0  0  0
  6 16  1  0  0  0  0
  7  8  1  0  0  0  0
  7  6  1  0  0  0  0
  7 17  1  6  0  0  0
  8 18  1  0  0  0  0
  9 11  1  0  0  0  0
  9 10  1  0  0  0  0
  9  7  1  0  0  0  0
  9 19  1  1  0  0  0
 10 20  1  0  0  0  0
 11 12  2  0  0  0  0
 11 13  1  0  0  0  0
 13 21  1  0  0  0  0
M  END
$$$$
