CHEBI:18394
 OpenBabel04252409323D

 45 46  0  0  1  0  0  0  0  0999 V2000
    3.5319   -0.7567   -1.4354 O   0  0  0  0  0  0  0  0  0  0  0  0
    2.4186   -1.6334   -1.6207 C   0  0  0  0  0  0  0  0  0  0  0  0
    1.8947   -2.0987   -0.2544 C   0  0  1  0  0  0  0  0  0  0  0  0
    1.3168   -0.9612    0.4138 O   0  0  0  0  0  0  0  0  0  0  0  0
    0.8279   -1.2662    1.7214 C   0  0  2  0  0  0  0  0  0  0  0  0
    1.8790   -1.7623    2.5642 O   0  0  0  0  0  0  0  0  0  0  0  0
    2.8233   -0.7293    2.8878 C   0  0  0  0  0  0  0  0  0  0  0  0
    3.9566   -1.2873    3.7582 C   0  0  1  0  0  0  0  0  0  0  0  0
    3.3968   -1.6926    5.0313 O   0  0  0  0  0  0  0  0  0  0  0  0
    3.8274   -3.0336    5.3019 C   0  0  0  0  0  0  0  0  0  0  0  0
    5.0784   -2.9429    5.9927 O   0  0  0  0  0  0  0  0  0  0  0  0
    2.8076   -3.7662    6.1873 C   0  0  0  0  0  0  0  0  0  0  0  0
    2.9023   -3.2604    7.5307 O   0  0  0  0  0  0  0  0  0  0  0  0
    4.0365   -3.6831    3.9269 C   0  0  1  0  0  0  0  0  0  0  0  0
    2.8138   -4.1158    3.3230 O   0  0  0  0  0  0  0  0  0  0  0  0
    4.6521   -2.5182    3.1570 C   0  0  2  0  0  0  0  0  0  0  0  0
    6.0634   -2.4512    3.4138 O   0  0  0  0  0  0  0  0  0  0  0  0
   -0.3141   -2.2943    1.6112 C   0  0  2  0  0  0  0  0  0  0  0  0
   -0.8599   -2.6372    2.8913 O   0  0  0  0  0  0  0  0  0  0  0  0
    0.1888   -3.5584    0.9167 C   0  0  1  0  0  0  0  0  0  0  0  0
   -0.9244   -4.4441    0.6986 O   0  0  0  0  0  0  0  0  0  0  0  0
    0.8616   -3.2236   -0.4184 C   0  0  2  0  0  0  0  0  0  0  0  0
    1.4515   -4.4190   -0.9461 O   0  0  0  0  0  0  0  0  0  0  0  0
    3.7350   -0.3689   -2.3031 H   0  0  0  0  0  0  0  0  0  0  0  0
    2.7589   -2.4768   -2.2286 H   0  0  0  0  0  0  0  0  0  0  0  0
    1.6442   -1.0809   -2.1634 H   0  0  0  0  0  0  0  0  0  0  0  0
    2.7564   -2.4511    0.3259 H   0  0  0  0  0  0  0  0  0  0  0  0
    0.4242   -0.3490    2.1668 H   0  0  0  0  0  0  0  0  0  0  0  0
    2.2985    0.0611    3.4366 H   0  0  0  0  0  0  0  0  0  0  0  0
    3.2453   -0.3129    1.9666 H   0  0  0  0  0  0  0  0  0  0  0  0
    4.6750   -0.4852    3.9623 H   0  0  0  0  0  0  0  0  0  0  0  0
    4.7974   -2.8057    6.9230 H   0  0  0  0  0  0  0  0  0  0  0  0
    3.0294   -4.8367    6.2354 H   0  0  0  0  0  0  0  0  0  0  0  0
    1.7844   -3.6091    5.8317 H   0  0  0  0  0  0  0  0  0  0  0  0
    2.1108   -3.5780    8.0008 H   0  0  0  0  0  0  0  0  0  0  0  0
    4.7137   -4.5416    3.9849 H   0  0  0  0  0  0  0  0  0  0  0  0
    2.2349   -3.3229    3.2609 H   0  0  0  0  0  0  0  0  0  0  0  0
    4.5206   -2.5909    2.0739 H   0  0  0  0  0  0  0  0  0  0  0  0
    6.1776   -2.4718    4.3894 H   0  0  0  0  0  0  0  0  0  0  0  0
   -1.1334   -1.8645    1.0210 H   0  0  0  0  0  0  0  0  0  0  0  0
   -1.4383   -3.4077    2.7205 H   0  0  0  0  0  0  0  0  0  0  0  0
    0.8716   -4.1144    1.5665 H   0  0  0  0  0  0  0  0  0  0  0  0
   -0.6014   -5.1310    0.0817 H   0  0  0  0  0  0  0  0  0  0  0  0
    0.0871   -2.9175   -1.1325 H   0  0  0  0  0  0  0  0  0  0  0  0
    2.1606   -4.7027   -0.3375 H   0  0  0  0  0  0  0  0  0  0  0  0
  1  2  1  0  0  0  0
  1 24  1  0  0  0  0
  2 25  1  0  0  0  0
  2 26  1  0  0  0  0
  3  4  1  0  0  0  0
  3 22  1  0  0  0  0
  3  2  1  0  0  0  0
  3 27  1  1  0  0  0
  4  5  1  0  0  0  0
  5  6  1  0  0  0  0
  5 18  1  0  0  0  0
  5 28  1  1  0  0  0
  6  7  1  0  0  0  0
  7 29  1  0  0  0  0
  7 30  1  0  0  0  0
  8  9  1  0  0  0  0
  8 16  1  0  0  0  0
  8  7  1  0  0  0  0
  8 31  1  1  0  0  0
  9 10  1  0  0  0  0
 10 11  1  0  0  0  0
 10 12  1  0  0  0  0
 10 14  1  0  0  0  0
 11 32  1  0  0  0  0
 12 13  1  0  0  0  0
 12 33  1  0  0  0  0
 12 34  1  0  0  0  0
 13 35  1  0  0  0  0
 14 15  1  0  0  0  0
 14 16  1  0  0  0  0
 14 36  1  1  0  0  0
 15 37  1  0  0  0  0
 16 17  1  0  0  0  0
 16 38  1  6  0  0  0
 17 39  1  0  0  0  0
 18 19  1  0  0  0  0
 18 20  1  0  0  0  0
 18 40  1  6  0  0  0
 19 41  1  0  0  0  0
 20 21  1  0  0  0  0
 20 22  1  0  0  0  0
 20 42  1  1  0  0  0
 21 43  1  0  0  0  0
 22 23  1  0  0  0  0
 22 44  1  6  0  0  0
 23 45  1  0  0  0  0
M  END
$$$$
