CHEBI:16309
 OpenBabel04242414093D

 18 18  0  0  0  0  0  0  0  0999 V2000
    1.2615    0.1647    0.4543 O   0  0  0  0  0  0  0  0  0  0  0  0
    2.3830   -0.1347   -0.0627 C   0  0  0  0  0  0  0  0  0  0  0  0
    2.9702   -1.2584    0.0235 O   0  5  0  0  0  0  0  0  0  0  0  0
    3.0818    0.9472   -0.8666 C   0  0  0  0  0  0  0  0  0  0  0  0
    4.3283    0.7014   -1.4698 C   0  0  0  0  0  0  0  0  0  0  0  0
    4.9666    1.6863   -2.2247 C   0  0  0  0  0  0  0  0  0  0  0  0
    4.3570    2.9336   -2.3752 C   0  0  0  0  0  0  0  0  0  0  0  0
    5.1235    4.1453   -3.4083 S   0  0  0  0  0  0  0  0  0  0  0  0
    4.0895    5.0083   -3.9421 O   0  0  0  0  0  0  0  0  0  0  0  0
    6.2777    4.6716   -2.7151 O   0  0  0  0  0  0  0  0  0  0  0  0
    5.6455    3.3010   -4.6843 O   0  0  0  0  0  0  0  0  0  0  0  0
    3.1225    3.2068   -1.7840 C   0  0  0  0  0  0  0  0  0  0  0  0
    2.4933    2.2142   -1.0307 C   0  0  0  0  0  0  0  0  0  0  0  0
    4.7915   -0.2769   -1.3436 H   0  0  0  0  0  0  0  0  0  0  0  0
    5.9272    1.4704   -2.6841 H   0  0  0  0  0  0  0  0  0  0  0  0
    4.9120    3.2655   -5.3327 H   0  0  0  0  0  0  0  0  0  0  0  0
    2.6394    4.1724   -1.9048 H   0  0  0  0  0  0  0  0  0  0  0  0
    1.5281    2.4116   -0.5647 H   0  0  0  0  0  0  0  0  0  0  0  0
  1  2  2  0  0  0  0
  2  3  1  0  0  0  0
  2  4  1  0  0  0  0
  4  5  1  0  0  0  0
  4 13  2  0  0  0  0
  5  6  2  0  0  0  0
  5 14  1  0  0  0  0
  6  7  1  0  0  0  0
  6 15  1  0  0  0  0
  7  8  1  0  0  0  0
  7 12  2  0  0  0  0
  8  9  2  0  0  0  0
  8 10  2  0  0  0  0
  8 11  1  0  0  0  0
 11 16  1  0  0  0  0
 12 13  1  0  0  0  0
 12 17  1  0  0  0  0
 13 18  1  0  0  0  0
M  CHG  1   3  -1
M  END
$$$$
