CHEBI:15522
 OpenBabel04242412333D

 86 88  0  0  1  0  0  0  0  0999 V2000
   -1.9976    4.8537   19.2809 C   0  0  0  0  0  0  0  0  0  0  0  0
   -1.4429    3.6238   18.5254 C   0  0  0  0  0  0  0  0  0  0  0  0
   -2.5040    2.5068   18.6199 C   0  0  0  0  0  0  0  0  0  0  0  0
   -1.2631    4.0073   17.0449 C   0  0  0  0  0  0  0  0  0  0  0  0
   -0.2037    4.9472   16.8473 O   0  0  0  0  0  0  0  0  0  0  0  0
    0.0100    5.2159   15.1517 P   0  0  0  0  0  0  0  0  0  0  0  0
    1.4060    5.7885   15.4451 O   0  0  0  0  0  0  0  0  0  0  0  0
   -1.0173    6.4787   15.2367 O   0  0  0  0  0  0  0  0  0  0  0  0
    0.2237    5.4846   13.4561 O   0  0  0  0  0  0  0  0  0  0  0  0
    1.1347    6.6098   12.7993 P   0  0  0  0  0  0  0  0  0  0  0  0
    0.7370    8.0145   13.1142 O   0  0  0  0  0  0  0  0  0  0  0  0
    2.6263    6.2381   13.2701 O   0  0  0  0  0  0  0  0  0  0  0  0
    1.0868    6.1974   11.2471 O   0  0  0  0  0  0  0  0  0  0  0  0
    2.2037    5.6504   10.5665 C   0  0  0  0  0  0  0  0  0  0  0  0
    2.6440    4.2557   11.0543 C   0  0  1  0  0  0  0  0  0  0  0  0
    1.6227    3.2624   10.8513 O   0  0  0  0  0  0  0  0  0  0  0  0
    1.9756    2.4329    9.7273 C   0  0  1  0  0  0  0  0  0  0  0  0
    0.8490    2.3097    8.8159 N   0  0  0  0  0  0  0  0  0  0  0  0
    0.8365    1.4994    7.7055 C   0  0  0  0  0  0  0  0  0  0  0  0
   -0.3069    1.5645    7.0560 N   0  0  0  0  0  0  0  0  0  0  0  0
   -1.0798    2.4382    7.7938 C   0  0  0  0  0  0  0  0  0  0  0  0
   -2.3914    2.9175    7.6285 C   0  0  0  0  0  0  0  0  0  0  0  0
   -3.2138    2.5440    6.5715 N   0  0  0  0  0  0  0  0  0  0  0  0
   -2.8764    3.8099    8.5209 N   0  0  0  0  0  0  0  0  0  0  0  0
   -2.0806    4.1857    9.5429 C   0  0  0  0  0  0  0  0  0  0  0  0
   -0.8210    3.7985    9.7971 N   0  0  0  0  0  0  0  0  0  0  0  0
   -0.3755    2.9200    8.8855 C   0  0  0  0  0  0  0  0  0  0  0  0
    3.2132    3.0695    9.0882 C   0  0  2  0  0  0  0  0  0  0  0  0
    4.0758    2.1336    8.4462 O   0  0  0  0  0  0  0  0  0  0  0  0
    3.8645    3.7553   10.2832 C   0  0  2  0  0  0  0  0  0  0  0  0
    4.6067    2.7767   11.0234 O   0  0  0  0  0  0  0  0  0  0  0  0
    5.2888    3.2397   12.4014 P   0  0  0  0  0  0  0  0  0  0  0  0
    4.3985    3.3459   13.5894 O   0  0  0  0  0  0  0  0  0  0  0  0
    6.5197    2.2602   12.6429 O   0  0  0  0  0  0  0  0  0  0  0  0
    5.9765    4.6425   12.0768 O   0  0  0  0  0  0  0  0  0  0  0  0
   -0.0961    3.2112   19.1794 C   0  0  1  0  0  0  0  0  0  0  0  0
   -0.3267    2.7729   20.5241 O   0  0  0  0  0  0  0  0  0  0  0  0
    0.7147    2.1364   18.4096 C   0  0  0  0  0  0  0  0  0  0  0  0
    0.2723    1.4434   17.5009 O   0  0  0  0  0  0  0  0  0  0  0  0
    2.0143    2.0082   18.8783 N   0  0  0  0  0  0  0  0  0  0  0  0
    2.9570    1.0925   18.2538 C   0  0  0  0  0  0  0  0  0  0  0  0
    3.7036    1.7292   17.0830 C   0  0  0  0  0  0  0  0  0  0  0  0
    4.6448    0.7637   16.3815 C   0  0  0  0  0  0  0  0  0  0  0  0
    4.6505    0.6052   15.1626 O   0  0  0  0  0  0  0  0  0  0  0  0
    5.5510    0.1353   17.2045 N   0  0  0  0  0  0  0  0  0  0  0  0
    6.4234   -0.9290   16.7311 C   0  0  0  0  0  0  0  0  0  0  0  0
    5.8364   -2.3225   16.9853 C   0  0  0  0  0  0  0  0  0  0  0  0
    5.4125   -2.6109   18.7420 S   0  0  0  0  0  0  0  0  0  0  0  0
    7.0203   -2.6800   19.4411 C   0  0  0  0  0  0  0  0  0  0  0  0
    8.0408   -2.6873   18.7634 O   0  0  0  0  0  0  0  0  0  0  0  0
   -1.2612    5.6636   19.3206 H   0  0  0  0  0  0  0  0  0  0  0  0
   -2.2744    4.6012   20.3104 H   0  0  0  0  0  0  0  0  0  0  0  0
   -2.8948    5.2471   18.7886 H   0  0  0  0  0  0  0  0  0  0  0  0
   -3.4448    2.8225   18.1528 H   0  0  0  0  0  0  0  0  0  0  0  0
   -2.7287    2.2461   19.6596 H   0  0  0  0  0  0  0  0  0  0  0  0
   -2.1831    1.5931   18.1102 H   0  0  0  0  0  0  0  0  0  0  0  0
   -2.1888    4.4433   16.6501 H   0  0  0  0  0  0  0  0  0  0  0  0
   -1.0533    3.1256   16.4305 H   0  0  0  0  0  0  0  0  0  0  0  0
   -0.5231    7.3046   15.4115 H   0  0  0  0  0  0  0  0  0  0  0  0
    2.6121    6.1949   14.2595 H   0  0  0  0  0  0  0  0  0  0  0  0
    3.0356    6.3594   10.6453 H   0  0  0  0  0  0  0  0  0  0  0  0
    1.9168    5.6024    9.5112 H   0  0  0  0  0  0  0  0  0  0  0  0
    2.8043    4.2703   12.1252 H   0  0  0  0  0  0  0  0  0  0  0  0
    2.1857    1.4225   10.0999 H   0  0  0  0  0  0  0  0  0  0  0  0
    1.6880    0.8933    7.4176 H   0  0  0  0  0  0  0  0  0  0  0  0
   -2.6945    2.1911    5.7755 H   0  0  0  0  0  0  0  0  0  0  0  0
   -3.9245    3.2422    6.3957 H   0  0  0  0  0  0  0  0  0  0  0  0
   -2.5102    4.8914   10.2478 H   0  0  0  0  0  0  0  0  0  0  0  0
    2.9191    3.8145    8.3391 H   0  0  0  0  0  0  0  0  0  0  0  0
    4.7934    1.9206    9.0761 H   0  0  0  0  0  0  0  0  0  0  0  0
    4.5576    4.5408    9.9666 H   0  0  0  0  0  0  0  0  0  0  0  0
    6.2789    1.5833   13.3087 H   0  0  0  0  0  0  0  0  0  0  0  0
    5.7912    5.2745   12.7980 H   0  0  0  0  0  0  0  0  0  0  0  0
    0.5495    4.0961   19.2486 H   0  0  0  0  0  0  0  0  0  0  0  0
    0.4660    2.2961   20.8233 H   0  0  0  0  0  0  0  0  0  0  0  0
    2.3807    2.7375   19.4791 H   0  0  0  0  0  0  0  0  0  0  0  0
    2.4263    0.1913   17.9265 H   0  0  0  0  0  0  0  0  0  0  0  0
    3.6495    0.7943   19.0475 H   0  0  0  0  0  0  0  0  0  0  0  0
    4.2860    2.5933   17.4235 H   0  0  0  0  0  0  0  0  0  0  0  0
    2.9841    2.0982   16.3425 H   0  0  0  0  0  0  0  0  0  0  0  0
    5.5219    0.2863   18.2028 H   0  0  0  0  0  0  0  0  0  0  0  0
    7.3864   -0.7970   17.2316 H   0  0  0  0  0  0  0  0  0  0  0  0
    6.5975   -0.8064   15.6564 H   0  0  0  0  0  0  0  0  0  0  0  0
    6.5256   -3.0994   16.6382 H   0  0  0  0  0  0  0  0  0  0  0  0
    4.9078   -2.4367   16.4148 H   0  0  0  0  0  0  0  0  0  0  0  0
    7.0535   -2.7001   20.5416 H   0  0  0  0  0  0  0  0  0  0  0  0
  1  2  1  0  0  0  0
  1 51  1  0  0  0  0
  1 52  1  0  0  0  0
  1 53  1  0  0  0  0
  2  3  1  0  0  0  0
  2  4  1  0  0  0  0
  2 36  1  0  0  0  0
  3 54  1  0  0  0  0
  3 55  1  0  0  0  0
  3 56  1  0  0  0  0
  4  5  1  0  0  0  0
  4 57  1  0  0  0  0
  4 58  1  0  0  0  0
  5  6  1  0  0  0  0
  6  7  2  0  0  0  0
  6  8  1  0  0  0  0
  6  9  1  0  0  0  0
  8 59  1  0  0  0  0
  9 10  1  0  0  0  0
 10 11  2  0  0  0  0
 10 12  1  0  0  0  0
 10 13  1  0  0  0  0
 12 60  1  0  0  0  0
 13 14  1  0  0  0  0
 14 61  1  0  0  0  0
 14 62  1  0  0  0  0
 15 16  1  0  0  0  0
 15 30  1  0  0  0  0
 15 14  1  0  0  0  0
 15 63  1  1  0  0  0
 16 17  1  0  0  0  0
 17 28  1  0  0  0  0
 17 18  1  0  0  0  0
 17 64  1  1  0  0  0
 18 19  1  0  0  0  0
 18 27  1  0  0  0  0
 19 20  2  0  0  0  0
 19 65  1  0  0  0  0
 20 21  1  0  0  0  0
 21 22  1  0  0  0  0
 21 27  2  0  0  0  0
 22 23  1  0  0  0  0
 22 24  2  0  0  0  0
 23 66  1  0  0  0  0
 23 67  1  0  0  0  0
 24 25  1  0  0  0  0
 25 26  2  0  0  0  0
 25 68  1  0  0  0  0
 26 27  1  0  0  0  0
 28 29  1  0  0  0  0
 28 30  1  0  0  0  0
 28 69  1  6  0  0  0
 29 70  1  0  0  0  0
 30 31  1  0  0  0  0
 30 71  1  6  0  0  0
 31 32  1  0  0  0  0
 32 33  2  0  0  0  0
 32 34  1  0  0  0  0
 32 35  1  0  0  0  0
 34 72  1  0  0  0  0
 35 73  1  0  0  0  0
 36 37  1  0  0  0  0
 36 38  1  0  0  0  0
 36 74  1  1  0  0  0
 37 75  1  0  0  0  0
 38 39  2  0  0  0  0
 38 40  1  0  0  0  0
 40 41  1  0  0  0  0
 40 76  1  0  0  0  0
 41 42  1  0  0  0  0
 41 77  1  0  0  0  0
 41 78  1  0  0  0  0
 42 43  1  0  0  0  0
 42 79  1  0  0  0  0
 42 80  1  0  0  0  0
 43 44  2  0  0  0  0
 43 45  1  0  0  0  0
 45 46  1  0  0  0  0
 45 81  1  0  0  0  0
 46 47  1  0  0  0  0
 46 82  1  0  0  0  0
 46 83  1  0  0  0  0
 47 48  1  0  0  0  0
 47 84  1  0  0  0  0
 47 85  1  0  0  0  0
 48 49  1  0  0  0  0
 49 50  2  0  0  0  0
 49 86  1  0  0  0  0
M  END
$$$$
