CHEBI:17512
 OpenBabel04242416433D

 47 48  0  0  1  0  0  0  0  0999 V2000
   10.2307    5.2666    1.1113 C   0  0  0  0  0  0  0  0  0  0  0  0
   10.1459    3.8626    1.3388 O   0  0  0  0  0  0  0  0  0  0  0  0
    9.7312    3.5637    2.6791 C   0  0  2  0  0  0  0  0  0  0  0  0
   10.8324    3.8012    3.5642 O   0  0  0  0  0  0  0  0  0  0  0  0
   11.6479    2.6493    3.8671 C   0  0  2  0  0  0  0  0  0  0  0  0
   13.0174    3.1847    4.2870 C   0  0  0  0  0  0  0  0  0  0  0  0
   12.8478    4.0568    5.4101 O   0  0  0  0  0  0  0  0  0  0  0  0
   11.7266    1.6497    2.7118 C   0  0  2  0  0  0  0  0  0  0  0  0
   12.3107    2.2459    1.5406 O   0  0  0  0  0  0  0  0  0  0  0  0
   10.3179    1.1152    2.3781 C   0  0  2  0  0  0  0  0  0  0  0  0
   10.2459    0.7492    0.9925 O   0  0  0  0  0  0  0  0  0  0  0  0
    9.1952    2.1119    2.7530 C   0  0  1  0  0  0  0  0  0  0  0  0
    8.7457    1.7637    4.0830 O   0  0  0  0  0  0  0  0  0  0  0  0
    7.5478    2.4289    4.4956 C   0  0  2  0  0  0  0  0  0  0  0  0
    7.8431    3.7271    5.0326 O   0  0  0  0  0  0  0  0  0  0  0  0
    8.7127    3.6732    6.1795 C   0  0  1  0  0  0  0  0  0  0  0  0
    9.0565    5.1078    6.5596 C   0  0  0  0  0  0  0  0  0  0  0  0
    8.0412    2.8968    7.3209 C   0  0  1  0  0  0  0  0  0  0  0  0
    6.8517    3.5627    7.7852 O   0  0  0  0  0  0  0  0  0  0  0  0
    7.6352    1.4987    6.8356 C   0  0  1  0  0  0  0  0  0  0  0  0
    6.8538    0.8331    7.8432 O   0  0  0  0  0  0  0  0  0  0  0  0
    6.7985    1.5932    5.5549 C   0  0  2  0  0  0  0  0  0  0  0  0
    6.4753    0.2812    5.0809 O   0  0  0  0  0  0  0  0  0  0  0  0
   10.9538    5.7273    1.7907 H   0  0  0  0  0  0  0  0  0  0  0  0
    9.2480    5.7335    1.2287 H   0  0  0  0  0  0  0  0  0  0  0  0
   10.5690    5.4251    0.0838 H   0  0  0  0  0  0  0  0  0  0  0  0
    8.9363    4.2623    2.9549 H   0  0  0  0  0  0  0  0  0  0  0  0
   11.2036    2.1594    4.7409 H   0  0  0  0  0  0  0  0  0  0  0  0
   13.4864    3.7690    3.4896 H   0  0  0  0  0  0  0  0  0  0  0  0
   13.6893    2.3746    4.5840 H   0  0  0  0  0  0  0  0  0  0  0  0
   12.1617    4.6951    5.1337 H   0  0  0  0  0  0  0  0  0  0  0  0
   12.3757    0.8077    2.9765 H   0  0  0  0  0  0  0  0  0  0  0  0
   11.7519    3.0183    1.3039 H   0  0  0  0  0  0  0  0  0  0  0  0
   10.1597    0.1914    2.9482 H   0  0  0  0  0  0  0  0  0  0  0  0
   11.0818    1.0526    0.5818 H   0  0  0  0  0  0  0  0  0  0  0  0
    8.3651    1.9814    2.0471 H   0  0  0  0  0  0  0  0  0  0  0  0
    6.8859    2.5554    3.6307 H   0  0  0  0  0  0  0  0  0  0  0  0
    9.6439    3.1708    5.9075 H   0  0  0  0  0  0  0  0  0  0  0  0
    8.1595    5.6956    6.7786 H   0  0  0  0  0  0  0  0  0  0  0  0
    9.5569    5.6080    5.7227 H   0  0  0  0  0  0  0  0  0  0  0  0
    9.7219    5.1382    7.4275 H   0  0  0  0  0  0  0  0  0  0  0  0
    8.7075    2.8133    8.1859 H   0  0  0  0  0  0  0  0  0  0  0  0
    6.5242    4.1231    7.0571 H   0  0  0  0  0  0  0  0  0  0  0  0
    8.5204    0.8760    6.6616 H   0  0  0  0  0  0  0  0  0  0  0  0
    6.3943    1.5475    8.3331 H   0  0  0  0  0  0  0  0  0  0  0  0
    5.8435    2.0809    5.7871 H   0  0  0  0  0  0  0  0  0  0  0  0
    6.2664   -0.2399    5.8824 H   0  0  0  0  0  0  0  0  0  0  0  0
  1  2  1  0  0  0  0
  1 24  1  0  0  0  0
  1 25  1  0  0  0  0
  1 26  1  0  0  0  0
  2  3  1  0  0  0  0
  3  4  1  0  0  0  0
  3 12  1  0  0  0  0
  3 27  1  1  0  0  0
  4  5  1  0  0  0  0
  5  6  1  0  0  0  0
  5  8  1  0  0  0  0
  5 28  1  1  0  0  0
  6  7  1  0  0  0  0
  6 29  1  0  0  0  0
  6 30  1  0  0  0  0
  7 31  1  0  0  0  0
  8  9  1  0  0  0  0
  8 10  1  0  0  0  0
  8 32  1  1  0  0  0
  9 33  1  0  0  0  0
 10 11  1  0  0  0  0
 10 12  1  0  0  0  0
 10 34  1  1  0  0  0
 11 35  1  0  0  0  0
 12 13  1  0  0  0  0
 12 36  1  6  0  0  0
 14 15  1  0  0  0  0
 14 22  1  0  0  0  0
 14 13  1  0  0  0  0
 14 37  1  6  0  0  0
 15 16  1  0  0  0  0
 16 17  1  0  0  0  0
 16 18  1  0  0  0  0
 16 38  1  6  0  0  0
 17 39  1  0  0  0  0
 17 40  1  0  0  0  0
 17 41  1  0  0  0  0
 18 19  1  0  0  0  0
 18 20  1  0  0  0  0
 18 42  1  1  0  0  0
 19 43  1  0  0  0  0
 20 21  1  0  0  0  0
 20 22  1  0  0  0  0
 20 44  1  6  0  0  0
 21 45  1  0  0  0  0
 22 23  1  0  0  0  0
 22 46  1  1  0  0  0
 23 47  1  0  0  0  0
M  END
$$$$
