CHEBI:16696
 OpenBabel04242415053D

 17 16  0  0  0  0  0  0  0  0999 V2000
    3.1539    1.0045   -0.9533 C   0  0  0  0  0  0  0  0  0  0  0  0
    2.7741    0.0670    0.5480 S   0  0  0  0  0  0  0  0  0  0  0  0
    3.7430    1.0220    1.7630 C   0  0  0  0  0  0  0  0  0  0  0  0
    5.2491    0.8899    1.5501 C   0  0  0  0  0  0  0  0  0  0  0  0
    6.0125    1.6001    2.6683 C   0  0  0  0  0  0  0  0  0  0  0  0
    7.4494    1.5126    2.4369 N   0  0  0  0  0  0  0  0  0  0  0  0
    2.5056    0.6572   -1.7625 H   0  0  0  0  0  0  0  0  0  0  0  0
    4.1912    0.8443   -1.2565 H   0  0  0  0  0  0  0  0  0  0  0  0
    2.9715    2.0710   -0.7987 H   0  0  0  0  0  0  0  0  0  0  0  0
    3.4743    0.6414    2.7544 H   0  0  0  0  0  0  0  0  0  0  0  0
    3.4305    2.0710    1.7238 H   0  0  0  0  0  0  0  0  0  0  0  0
    5.5359    1.3269    0.5863 H   0  0  0  0  0  0  0  0  0  0  0  0
    5.5350   -0.1696    1.5290 H   0  0  0  0  0  0  0  0  0  0  0  0
    5.7726    1.1489    3.6374 H   0  0  0  0  0  0  0  0  0  0  0  0
    5.7233    2.6558    2.7107 H   0  0  0  0  0  0  0  0  0  0  0  0
    7.7375    0.5345    2.4185 H   0  0  0  0  0  0  0  0  0  0  0  0
    7.9465    1.9401    3.2175 H   0  0  0  0  0  0  0  0  0  0  0  0
  1  2  1  0  0  0  0
  1  7  1  0  0  0  0
  1  8  1  0  0  0  0
  1  9  1  0  0  0  0
  2  3  1  0  0  0  0
  3  4  1  0  0  0  0
  3 10  1  0  0  0  0
  3 11  1  0  0  0  0
  4  5  1  0  0  0  0
  4 12  1  0  0  0  0
  4 13  1  0  0  0  0
  5  6  1  0  0  0  0
  5 14  1  0  0  0  0
  5 15  1  0  0  0  0
  6 16  1  0  0  0  0
  6 17  1  0  0  0  0
M  END
$$$$
