CHEBI:17580
 OpenBabel04242416513D

 29 28  0  0  0  0  0  0  0  0999 V2000
    0.5772    3.7456    0.9866 C   0  0  0  0  0  0  0  0  0  0  0  0
    1.1359    3.1655   -0.0848 C   0  0  0  0  0  0  0  0  0  0  0  0
    1.9248    1.8760   -0.1380 C   0  0  0  0  0  0  0  0  0  0  0  0
    2.0355    1.1250    1.1955 C   0  0  0  0  0  0  0  0  0  0  0  0
    1.2005    1.0193   -1.0313 O   0  0  0  0  0  0  0  0  0  0  0  0
    3.3158    2.0927   -0.7733 C   0  0  0  0  0  0  0  0  0  0  0  0
    4.2320    3.0445    0.0005 C   0  0  0  0  0  0  0  0  0  0  0  0
    5.5792    3.1752   -0.6584 C   0  0  0  0  0  0  0  0  0  0  0  0
    5.9608    4.1128   -1.5476 C   0  0  0  0  0  0  0  0  0  0  0  0
    5.0618    5.1831   -2.1025 C   0  0  0  0  0  0  0  0  0  0  0  0
    7.3684    4.1417   -2.0819 C   0  0  0  0  0  0  0  0  0  0  0  0
    0.0336    4.6808    0.8837 H   0  0  0  0  0  0  0  0  0  0  0  0
    0.6402    3.3228    1.9837 H   0  0  0  0  0  0  0  0  0  0  0  0
    1.0187    3.6667   -1.0463 H   0  0  0  0  0  0  0  0  0  0  0  0
    1.0452    0.8438    1.5736 H   0  0  0  0  0  0  0  0  0  0  0  0
    2.5423    1.7120    1.9675 H   0  0  0  0  0  0  0  0  0  0  0  0
    2.5844    0.1850    1.0637 H   0  0  0  0  0  0  0  0  0  0  0  0
    0.2875    0.9699   -0.6990 H   0  0  0  0  0  0  0  0  0  0  0  0
    3.1868    2.4640   -1.8005 H   0  0  0  0  0  0  0  0  0  0  0  0
    3.8099    1.1178   -0.8920 H   0  0  0  0  0  0  0  0  0  0  0  0
    4.3985    2.6707    1.0173 H   0  0  0  0  0  0  0  0  0  0  0  0
    3.7664    4.0284    0.1179 H   0  0  0  0  0  0  0  0  0  0  0  0
    6.3069    2.4269   -0.3444 H   0  0  0  0  0  0  0  0  0  0  0  0
    4.0148    5.0586   -1.8147 H   0  0  0  0  0  0  0  0  0  0  0  0
    5.0934    5.1695   -3.1974 H   0  0  0  0  0  0  0  0  0  0  0  0
    5.3923    6.1688   -1.7599 H   0  0  0  0  0  0  0  0  0  0  0  0
    7.9975    3.3629   -1.6382 H   0  0  0  0  0  0  0  0  0  0  0  0
    7.8351    5.1081   -1.8642 H   0  0  0  0  0  0  0  0  0  0  0  0
    7.3669    3.9919   -3.1664 H   0  0  0  0  0  0  0  0  0  0  0  0
  1  2  2  0  0  0  0
  1 12  1  0  0  0  0
  1 13  1  0  0  0  0
  2  3  1  0  0  0  0
  2 14  1  0  0  0  0
  3  4  1  0  0  0  0
  3  5  1  0  0  0  0
  3  6  1  0  0  0  0
  4 15  1  0  0  0  0
  4 16  1  0  0  0  0
  4 17  1  0  0  0  0
  5 18  1  0  0  0  0
  6  7  1  0  0  0  0
  6 19  1  0  0  0  0
  6 20  1  0  0  0  0
  7  8  1  0  0  0  0
  7 21  1  0  0  0  0
  7 22  1  0  0  0  0
  8  9  2  0  0  0  0
  8 23  1  0  0  0  0
  9 10  1  0  0  0  0
  9 11  1  0  0  0  0
 10 24  1  0  0  0  0
 10 25  1  0  0  0  0
 10 26  1  0  0  0  0
 11 27  1  0  0  0  0
 11 28  1  0  0  0  0
 11 29  1  0  0  0  0
M  END
$$$$
