CHEBI:16836
 OpenBabel04242415223D

 15 15  0  0  0  0  0  0  0  0999 V2000
    1.1194   -0.2391    0.5858 O   0  0  0  0  0  0  0  0  0  0  0  0
    2.1567    0.0423   -0.0314 N   0  3  0  0  0  0  0  0  0  0  0  0
    2.5970   -0.5998   -0.9956 O   0  5  0  0  0  0  0  0  0  0  0  0
    2.9162    1.2183    0.4116 C   0  0  0  0  0  0  0  0  0  0  0  0
    2.4905    1.9354    1.5401 C   0  0  0  0  0  0  0  0  0  0  0  0
    3.2146    3.0543    1.9605 C   0  0  0  0  0  0  0  0  0  0  0  0
    4.3494    3.4421    1.2520 C   0  0  0  0  0  0  0  0  0  0  0  0
    5.0836    4.5268    1.6279 O   0  0  0  0  0  0  0  0  0  0  0  0
    4.7752    2.7336    0.1316 C   0  0  0  0  0  0  0  0  0  0  0  0
    4.0592    1.6142   -0.2963 C   0  0  0  0  0  0  0  0  0  0  0  0
    1.6049    1.6366    2.0974 H   0  0  0  0  0  0  0  0  0  0  0  0
    2.8813    3.6059    2.8348 H   0  0  0  0  0  0  0  0  0  0  0  0
    4.6808    4.9258    2.4169 H   0  0  0  0  0  0  0  0  0  0  0  0
    5.6639    3.0540   -0.4069 H   0  0  0  0  0  0  0  0  0  0  0  0
    4.4018    1.0691   -1.1732 H   0  0  0  0  0  0  0  0  0  0  0  0
  1  2  2  0  0  0  0
  2  3  1  0  0  0  0
  2  4  1  0  0  0  0
  4  5  1  0  0  0  0
  4 10  2  0  0  0  0
  5  6  2  0  0  0  0
  5 11  1  0  0  0  0
  6  7  1  0  0  0  0
  6 12  1  0  0  0  0
  7  8  1  0  0  0  0
  7  9  2  0  0  0  0
  8 13  1  0  0  0  0
  9 10  1  0  0  0  0
  9 14  1  0  0  0  0
 10 15  1  0  0  0  0
M  CHG  2   2   1   3  -1
M  END
$$$$
