CHEBI:20110
 OpenBabel04252409373D

 18 18  0  0  0  0  0  0  0  0999 V2000
   -1.7482   -1.6134    0.0134 C   0  0  0  0  0  0  0  0  0  0  0  0
   -0.5023   -0.7747    0.0008 C   0  0  0  0  0  0  0  0  0  0  0  0
    0.7611   -1.3838   -0.0196 C   0  0  0  0  0  0  0  0  0  0  0  0
    1.9261   -0.6129   -0.0330 C   0  0  0  0  0  0  0  0  0  0  0  0
    1.8447    0.7792   -0.0268 C   0  0  0  0  0  0  0  0  0  0  0  0
    0.5910    1.3978   -0.0073 C   0  0  0  0  0  0  0  0  0  0  0  0
    0.5361    2.8716   -0.0017 C   0  0  0  0  0  0  0  0  0  0  0  0
   -0.5383    3.4647    0.0152 O   0  0  0  0  0  0  0  0  0  0  0  0
   -0.5783    0.6241    0.0061 C   0  0  0  0  0  0  0  0  0  0  0  0
   -1.8266    1.1920    0.0246 O   0  0  0  0  0  0  0  0  0  0  0  0
   -1.5119   -2.6827    0.0214 H   0  0  0  0  0  0  0  0  0  0  0  0
   -2.3495   -1.4122   -0.8791 H   0  0  0  0  0  0  0  0  0  0  0  0
   -2.3416   -1.3985    0.9080 H   0  0  0  0  0  0  0  0  0  0  0  0
    0.8448   -2.4691   -0.0250 H   0  0  0  0  0  0  0  0  0  0  0  0
    2.8972   -1.1028   -0.0484 H   0  0  0  0  0  0  0  0  0  0  0  0
    2.7603    1.3645   -0.0375 H   0  0  0  0  0  0  0  0  0  0  0  0
    1.4964    3.4134   -0.0133 H   0  0  0  0  0  0  0  0  0  0  0  0
   -1.7191    2.1698    0.0267 H   0  0  0  0  0  0  0  0  0  0  0  0
  1  2  1  0  0  0  0
  1 11  1  0  0  0  0
  1 12  1  0  0  0  0
  1 13  1  0  0  0  0
  2  3  1  0  0  0  0
  2  9  2  0  0  0  0
  3  4  2  0  0  0  0
  3 14  1  0  0  0  0
  4  5  1  0  0  0  0
  4 15  1  0  0  0  0
  5  6  2  0  0  0  0
  5 16  1  0  0  0  0
  6  7  1  0  0  0  0
  6  9  1  0  0  0  0
  7  8  2  0  0  0  0
  7 17  1  0  0  0  0
  9 10  1  0  0  0  0
 10 18  1  0  0  0  0
M  END
$$$$
