CHEBI:16578
 OpenBabel04242414473D

 58 59  0  0  1  0  0  0  0  0999 V2000
    2.7496   -5.7321   -1.0071 C   0  0  0  0  0  0  0  0  0  0  0  0
    4.1857   -5.5028   -0.5037 C   0  0  2  0  0  0  0  0  0  0  0  0
    4.3394   -6.3322    0.6686 O   0  0  0  0  0  0  0  0  0  0  0  0
    4.3792   -4.0322   -0.0798 C   0  0  0  0  0  0  0  0  0  0  0  0
    3.3907   -3.6715    0.8925 O   0  0  0  0  0  0  0  0  0  0  0  0
    5.2129   -5.9847   -1.5681 C   0  0  2  0  0  0  0  0  0  0  0  0
    4.9570   -7.3694   -1.8655 O   0  0  0  0  0  0  0  0  0  0  0  0
    6.6861   -5.8864   -1.1534 C   0  0  0  0  0  0  0  0  0  0  0  0
    7.0885   -4.5406   -0.9895 O   0  0  0  0  0  0  0  0  0  0  0  0
    8.6073   -4.2823   -0.5422 P   0  0  0  0  0  0  0  0  0  0  0  0
    9.2277   -5.3436    0.3061 O   0  0  0  0  0  0  0  0  0  0  0  0
    9.3536   -4.0150   -1.9298 O   0  0  0  0  0  0  0  0  0  0  0  0
    8.5391   -2.8333    0.1382 O   0  0  0  0  0  0  0  0  0  0  0  0
    9.1158   -2.9090    1.7675 P   0  0  0  0  0  0  0  0  0  0  0  0
   10.5078   -2.4820    1.2909 O   0  0  0  0  0  0  0  0  0  0  0  0
    8.3497   -1.5112    2.1132 O   0  0  0  0  0  0  0  0  0  0  0  0
    9.6924   -2.9847    3.3968 O   0  0  0  0  0  0  0  0  0  0  0  0
   10.1043   -4.2755    3.7943 C   0  0  0  0  0  0  0  0  0  0  0  0
   10.5550   -4.2345    5.2532 C   0  0  1  0  0  0  0  0  0  0  0  0
   10.9179   -5.5674    5.6550 O   0  0  0  0  0  0  0  0  0  0  0  0
   12.3597   -5.6476    5.7663 C   0  0  1  0  0  0  0  0  0  0  0  0
   12.7860   -6.8841    5.1206 N   0  0  0  0  0  0  0  0  0  0  0  0
   12.7488   -7.0331    3.7508 C   0  0  0  0  0  0  0  0  0  0  0  0
   13.0236   -8.1978    3.1692 C   0  0  0  0  0  0  0  0  0  0  0  0
   13.3491   -9.3072    4.0802 C   0  0  0  0  0  0  0  0  0  0  0  0
   13.6239  -10.5436    3.5656 N   0  0  0  0  0  0  0  0  0  0  0  0
   13.3768   -9.1840    5.3683 N   0  0  0  0  0  0  0  0  0  0  0  0
   13.0824   -7.9732    5.9527 C   0  0  0  0  0  0  0  0  0  0  0  0
   13.0707   -7.8691    7.1777 O   0  0  0  0  0  0  0  0  0  0  0  0
   12.9301   -4.3278    5.2073 C   0  0  2  0  0  0  0  0  0  0  0  0
   14.1393   -3.9120    5.8370 O   0  0  0  0  0  0  0  0  0  0  0  0
   11.7872   -3.3660    5.5009 C   0  0  2  0  0  0  0  0  0  0  0  0
   11.8863   -2.9647    6.8830 O   0  0  0  0  0  0  0  0  0  0  0  0
    2.0098   -5.4706   -0.2423 H   0  0  0  0  0  0  0  0  0  0  0  0
    2.5692   -6.7884   -1.2355 H   0  0  0  0  0  0  0  0  0  0  0  0
    2.5444   -5.1414   -1.9055 H   0  0  0  0  0  0  0  0  0  0  0  0
    3.8468   -5.8673    1.3773 H   0  0  0  0  0  0  0  0  0  0  0  0
    4.3196   -3.3449   -0.9300 H   0  0  0  0  0  0  0  0  0  0  0  0
    5.3329   -3.8896    0.4323 H   0  0  0  0  0  0  0  0  0  0  0  0
    2.6757   -3.2073    0.4209 H   0  0  0  0  0  0  0  0  0  0  0  0
    5.0643   -5.4142   -2.4925 H   0  0  0  0  0  0  0  0  0  0  0  0
    4.7929   -7.7938   -0.9980 H   0  0  0  0  0  0  0  0  0  0  0  0
    7.3158   -6.3543   -1.9197 H   0  0  0  0  0  0  0  0  0  0  0  0
    6.8547   -6.4407   -0.2230 H   0  0  0  0  0  0  0  0  0  0  0  0
   10.3080   -3.8532   -1.8099 H   0  0  0  0  0  0  0  0  0  0  0  0
    8.9751   -0.7778    1.9612 H   0  0  0  0  0  0  0  0  0  0  0  0
   10.9013   -4.6195    3.1310 H   0  0  0  0  0  0  0  0  0  0  0  0
    9.2677   -4.9745    3.6824 H   0  0  0  0  0  0  0  0  0  0  0  0
    9.7205   -3.9047    5.8829 H   0  0  0  0  0  0  0  0  0  0  0  0
   12.5849   -5.6882    6.8381 H   0  0  0  0  0  0  0  0  0  0  0  0
   12.4857   -6.1783    3.1428 H   0  0  0  0  0  0  0  0  0  0  0  0
   13.0138   -8.3500    2.1002 H   0  0  0  0  0  0  0  0  0  0  0  0
   13.1252  -10.8104    2.7262 H   0  0  0  0  0  0  0  0  0  0  0  0
   13.6021  -11.2616    4.2842 H   0  0  0  0  0  0  0  0  0  0  0  0
   13.1120   -4.3701    4.1306 H   0  0  0  0  0  0  0  0  0  0  0  0
   13.8693   -3.3758    6.6121 H   0  0  0  0  0  0  0  0  0  0  0  0
   11.8296   -2.4530    4.9011 H   0  0  0  0  0  0  0  0  0  0  0  0
   11.3466   -3.5692    7.4273 H   0  0  0  0  0  0  0  0  0  0  0  0
  1 34  1  0  0  0  0
  1 35  1  0  0  0  0
  1 36  1  0  0  0  0
  2  4  1  0  0  0  0
  2  3  1  1  0  0  0
  2  1  1  0  0  0  0
  3 37  1  0  0  0  0
  4  5  1  0  0  0  0
  4 38  1  0  0  0  0
  4 39  1  0  0  0  0
  5 40  1  0  0  0  0
  6  8  1  0  0  0  0
  6  7  1  0  0  0  0
  6  2  1  0  0  0  0
  6 41  1  6  0  0  0
  7 42  1  0  0  0  0
  8  9  1  0  0  0  0
  8 43  1  0  0  0  0
  8 44  1  0  0  0  0
  9 10  1  0  0  0  0
 10 11  2  0  0  0  0
 10 12  1  0  0  0  0
 10 13  1  0  0  0  0
 12 45  1  0  0  0  0
 13 14  1  0  0  0  0
 14 15  2  0  0  0  0
 14 16  1  0  0  0  0
 14 17  1  0  0  0  0
 16 46  1  0  0  0  0
 17 18  1  0  0  0  0
 18 19  1  0  0  0  0
 18 47  1  0  0  0  0
 18 48  1  0  0  0  0
 19 20  1  0  0  0  0
 19 32  1  0  0  0  0
 19 49  1  1  0  0  0
 20 21  1  0  0  0  0
 21 22  1  0  0  0  0
 21 30  1  0  0  0  0
 21 50  1  1  0  0  0
 22 23  1  0  0  0  0
 22 28  1  0  0  0  0
 23 24  2  0  0  0  0
 23 51  1  0  0  0  0
 24 25  1  0  0  0  0
 24 52  1  0  0  0  0
 25 26  1  0  0  0  0
 25 27  2  0  0  0  0
 26 53  1  0  0  0  0
 26 54  1  0  0  0  0
 27 28  1  0  0  0  0
 28 29  2  0  0  0  0
 30 31  1  0  0  0  0
 30 32  1  0  0  0  0
 30 55  1  6  0  0  0
 31 56  1  0  0  0  0
 32 33  1  0  0  0  0
 32 57  1  6  0  0  0
 33 58  1  0  0  0  0
M  END
$$$$
