CHEBI:17252
 OpenBabel04242416063D

 54 57  0  0  1  0  0  0  0  0999 V2000
    4.1326    1.4326   -0.3095 C   0  0  0  0  0  0  0  0  0  0  0  0
    4.1269   -0.0671   -0.4468 C   0  0  0  0  0  0  0  0  0  0  0  0
    3.3084   -0.6068   -1.1963 O   0  0  0  0  0  0  0  0  0  0  0  0
    5.1597   -0.8804    0.3870 C   0  0  1  0  0  0  0  0  0  0  0  0
    5.7414   -0.0760    1.4159 O   0  0  0  0  0  0  0  0  0  0  0  0
    4.3775   -2.0122    1.1215 C   0  0  0  0  0  0  0  0  0  0  0  0
    4.9817   -3.3388    0.6603 C   0  0  0  0  0  0  0  0  0  0  0  0
    6.4190   -2.9500    0.3663 C   0  0  1  0  0  0  0  0  0  0  0  0
    7.3295   -3.9682   -0.3262 C   0  0  2  0  0  0  0  0  0  0  0  0
    7.3176   -5.3361    0.3780 C   0  0  0  0  0  0  0  0  0  0  0  0
    8.2964   -6.3170   -0.2681 C   0  0  0  0  0  0  0  0  0  0  0  0
    9.6686   -5.6913   -0.2928 C   0  0  0  0  0  0  0  0  0  0  0  0
   10.6539   -6.2262    0.4498 C   0  0  0  0  0  0  0  0  0  0  0  0
   11.9153   -5.4894    0.6881 C   0  0  0  0  0  0  0  0  0  0  0  0
   12.8358   -6.0366    1.2888 O   0  0  0  0  0  0  0  0  0  0  0  0
   11.9543   -4.0381    0.2857 C   0  0  0  0  0  0  0  0  0  0  0  0
   11.2598   -3.8681   -1.0550 C   0  0  0  0  0  0  0  0  0  0  0  0
    9.7862   -4.3720   -1.0722 C   0  0  1  0  0  0  0  0  0  0  0  0
    9.4488   -4.6062   -2.5673 C   0  0  0  0  0  0  0  0  0  0  0  0
    8.7773   -3.3663   -0.4012 C   0  0  1  0  0  0  0  0  0  0  0  0
    8.7719   -1.9402   -1.0206 C   0  0  0  0  0  0  0  0  0  0  0  0
    7.6935   -0.9973   -0.4376 C   0  0  0  0  0  0  0  0  0  0  0  0
    6.2823   -1.6282   -0.4353 C   0  0  2  0  0  0  0  0  0  0  0  0
    5.8412   -1.8497   -1.9073 C   0  0  0  0  0  0  0  0  0  0  0  0
    3.3796    1.8607   -0.9785 H   0  0  0  0  0  0  0  0  0  0  0  0
    5.1108    1.8293   -0.5881 H   0  0  0  0  0  0  0  0  0  0  0  0
    3.8783    1.7093    0.7165 H   0  0  0  0  0  0  0  0  0  0  0  0
    6.3180    0.5893    1.0035 H   0  0  0  0  0  0  0  0  0  0  0  0
    3.2994   -2.0040    0.9309 H   0  0  0  0  0  0  0  0  0  0  0  0
    4.5044   -1.9193    2.2083 H   0  0  0  0  0  0  0  0  0  0  0  0
    4.4677   -3.7176   -0.2287 H   0  0  0  0  0  0  0  0  0  0  0  0
    4.9025   -4.0984    1.4441 H   0  0  0  0  0  0  0  0  0  0  0  0
    6.8790   -2.7235    1.3429 H   0  0  0  0  0  0  0  0  0  0  0  0
    6.9529   -4.1463   -1.3377 H   0  0  0  0  0  0  0  0  0  0  0  0
    6.3119   -5.7706    0.3393 H   0  0  0  0  0  0  0  0  0  0  0  0
    7.5683   -5.2094    1.4395 H   0  0  0  0  0  0  0  0  0  0  0  0
    7.9736   -6.5763   -1.2822 H   0  0  0  0  0  0  0  0  0  0  0  0
    8.2900   -7.2532    0.3032 H   0  0  0  0  0  0  0  0  0  0  0  0
   10.5460   -7.1552    0.9987 H   0  0  0  0  0  0  0  0  0  0  0  0
   13.0019   -3.7312    0.1942 H   0  0  0  0  0  0  0  0  0  0  0  0
   11.4855   -3.4366    1.0705 H   0  0  0  0  0  0  0  0  0  0  0  0
   11.8417   -4.4383   -1.7949 H   0  0  0  0  0  0  0  0  0  0  0  0
   11.3296   -2.8244   -1.3764 H   0  0  0  0  0  0  0  0  0  0  0  0
   10.0495   -5.4263   -2.9801 H   0  0  0  0  0  0  0  0  0  0  0  0
    9.6659   -3.7160   -3.1679 H   0  0  0  0  0  0  0  0  0  0  0  0
    8.4014   -4.8648   -2.7411 H   0  0  0  0  0  0  0  0  0  0  0  0
    9.1089   -3.2312    0.6406 H   0  0  0  0  0  0  0  0  0  0  0  0
    8.6510   -1.9952   -2.1064 H   0  0  0  0  0  0  0  0  0  0  0  0
    9.7437   -1.4635   -0.8491 H   0  0  0  0  0  0  0  0  0  0  0  0
    7.6888   -0.0557   -0.9997 H   0  0  0  0  0  0  0  0  0  0  0  0
    8.0029   -0.7479    0.5853 H   0  0  0  0  0  0  0  0  0  0  0  0
    6.5663   -2.4152   -2.4978 H   0  0  0  0  0  0  0  0  0  0  0  0
    5.7247   -0.8889   -2.4220 H   0  0  0  0  0  0  0  0  0  0  0  0
    4.8959   -2.3944   -1.9825 H   0  0  0  0  0  0  0  0  0  0  0  0
  1  2  1  0  0  0  0
  1 25  1  0  0  0  0
  1 26  1  0  0  0  0
  1 27  1  0  0  0  0
  2  3  2  0  0  0  0
  4  6  1  0  0  0  0
  4 23  1  0  0  0  0
  4  5  1  1  0  0  0
  4  2  1  0  0  0  0
  5 28  1  0  0  0  0
  6  7  1  0  0  0  0
  6 29  1  0  0  0  0
  6 30  1  0  0  0  0
  7  8  1  0  0  0  0
  7 31  1  0  0  0  0
  7 32  1  0  0  0  0
  8  9  1  0  0  0  0
  8 23  1  0  0  0  0
  8 33  1  1  0  0  0
  9 10  1  0  0  0  0
  9 20  1  0  0  0  0
  9 34  1  6  0  0  0
 10 11  1  0  0  0  0
 10 35  1  0  0  0  0
 10 36  1  0  0  0  0
 11 12  1  0  0  0  0
 11 37  1  0  0  0  0
 11 38  1  0  0  0  0
 12 13  2  0  0  0  0
 12 18  1  0  0  0  0
 13 14  1  0  0  0  0
 13 39  1  0  0  0  0
 14 15  2  0  0  0  0
 14 16  1  0  0  0  0
 16 17  1  0  0  0  0
 16 40  1  0  0  0  0
 16 41  1  0  0  0  0
 17 18  1  0  0  0  0
 17 42  1  0  0  0  0
 17 43  1  0  0  0  0
 18 19  1  6  0  0  0
 18 20  1  0  0  0  0
 19 44  1  0  0  0  0
 19 45  1  0  0  0  0
 19 46  1  0  0  0  0
 20 21  1  0  0  0  0
 20 47  1  1  0  0  0
 21 22  1  0  0  0  0
 21 48  1  0  0  0  0
 21 49  1  0  0  0  0
 22 23  1  0  0  0  0
 22 50  1  0  0  0  0
 22 51  1  0  0  0  0
 23 24  1  6  0  0  0
 24 52  1  0  0  0  0
 24 53  1  0  0  0  0
 24 54  1  0  0  0  0
M  END
$$$$
