CHEBI:15880
 OpenBabel04242413243D

 21 20  0  0  1  0  0  0  0  0999 V2000
    9.6542    0.2062   -0.6733 C   0  0  0  0  0  0  0  0  0  0  0  0
    8.1687    1.0732   -1.2272 S   0  0  0  0  0  0  0  0  0  0  0  0
    7.1162   -0.3250   -1.3855 C   0  0  0  0  0  0  0  0  0  0  0  0
    7.4151   -1.2841   -2.0880 O   0  0  0  0  0  0  0  0  0  0  0  0
    5.8334   -0.2870   -0.5617 C   0  0  2  0  0  0  0  0  0  0  0  0
    5.3649   -1.6295   -0.3122 O   0  0  0  0  0  0  0  0  0  0  0  0
    4.7444    0.5008   -1.2907 C   0  0  0  0  0  0  0  0  0  0  0  0
    3.6519    0.7796   -0.4172 O   0  0  0  0  0  0  0  0  0  0  0  0
    2.6667   -0.4300   -0.0478 P   0  0  0  0  0  0  0  0  0  0  0  0
    2.3163   -1.3748   -1.1432 O   0  0  0  0  0  0  0  0  0  0  0  0
    3.3706   -1.1246    1.2068 O   0  0  0  0  0  0  0  0  0  0  0  0
    1.4460    0.2955    0.6768 O   0  0  0  0  0  0  0  0  0  0  0  0
   10.4886    0.9108   -0.6264 H   0  0  0  0  0  0  0  0  0  0  0  0
    9.9200   -0.6024   -1.3591 H   0  0  0  0  0  0  0  0  0  0  0  0
    9.4917   -0.2075    0.3260 H   0  0  0  0  0  0  0  0  0  0  0  0
    6.0345    0.1463    0.4236 H   0  0  0  0  0  0  0  0  0  0  0  0
    5.5496   -2.1382   -1.1343 H   0  0  0  0  0  0  0  0  0  0  0  0
    4.3744   -0.0457   -2.1654 H   0  0  0  0  0  0  0  0  0  0  0  0
    5.1228    1.4654   -1.6428 H   0  0  0  0  0  0  0  0  0  0  0  0
    4.1074   -1.6886    0.8727 H   0  0  0  0  0  0  0  0  0  0  0  0
    1.7355    0.6887    1.5178 H   0  0  0  0  0  0  0  0  0  0  0  0
  1  2  1  0  0  0  0
  1 13  1  0  0  0  0
  1 14  1  0  0  0  0
  1 15  1  0  0  0  0
  2  3  1  0  0  0  0
  3  4  2  0  0  0  0
  5  7  1  0  0  0  0
  5  6  1  0  0  0  0
  5  3  1  0  0  0  0
  5 16  1  1  0  0  0
  6 17  1  0  0  0  0
  7  8  1  0  0  0  0
  7 18  1  0  0  0  0
  7 19  1  0  0  0  0
  8  9  1  0  0  0  0
  9 10  2  0  0  0  0
  9 11  1  0  0  0  0
  9 12  1  0  0  0  0
 11 20  1  0  0  0  0
 12 21  1  0  0  0  0
M  END
$$$$
