CHEBI:7508
 OpenBabel04242411103D

 88 91  0  0  1  0  0  0  0  0999 V2000
    2.1379   -0.4227    3.4847 N   0  0  0  0  0  0  0  0  0  0  0  0
    1.4316   -1.2850    4.4439 C   0  0  0  0  0  0  0  0  0  0  0  0
    2.1453   -2.6476    4.5771 C   0  0  2  0  0  0  0  0  0  0  0  0
    2.2606   -3.3104    3.3009 O   0  0  0  0  0  0  0  0  0  0  0  0
    1.1119   -4.0136    2.8311 C   0  0  2  0  0  0  0  0  0  0  0  0
    0.0475   -3.1503    2.4125 O   0  0  0  0  0  0  0  0  0  0  0  0
    0.2755   -2.5110    1.1516 C   0  0  1  0  0  0  0  0  0  0  0  0
    0.2719   -3.4570   -0.0441 C   0  0  1  0  0  0  0  0  0  0  0  0
   -0.7807   -4.4269    0.0934 O   0  0  0  0  0  0  0  0  0  0  0  0
   -0.0280   -2.4876   -1.2034 C   0  0  2  0  0  0  0  0  0  0  0  0
    1.2010   -1.9850   -1.7364 O   0  0  0  0  0  0  0  0  0  0  0  0
    1.0542   -1.1275   -2.8920 C   0  0  2  0  0  0  0  0  0  0  0  0
    0.3637   -1.8039   -4.1153 C   0  0  1  0  0  0  0  0  0  0  0  0
    0.0379   -0.8377   -5.1309 O   0  0  0  0  0  0  0  0  0  0  0  0
    1.2159   -2.9231   -4.7641 C   0  0  2  0  0  0  0  0  0  0  0  0
    1.2225   -4.1610   -3.9637 N   0  0  0  0  0  0  0  0  0  0  0  0
    2.6526   -2.4466   -5.0376 C   0  0  0  0  0  0  0  0  0  0  0  0
    3.3402   -1.7908   -3.8260 C   0  0  2  0  0  0  0  0  0  0  0  0
    3.6559   -2.7931   -2.7819 N   0  0  0  0  0  0  0  0  0  0  0  0
    2.4756   -0.6048   -3.2953 C   0  0  1  0  0  0  0  0  0  0  0  0
    2.2956    0.4468   -4.2585 O   0  0  0  0  0  0  0  0  0  0  0  0
    3.4481    1.2384   -4.5885 C   0  0  1  0  0  0  0  0  0  0  0  0
    4.3798    0.4630   -5.3298 O   0  0  0  0  0  0  0  0  0  0  0  0
    5.5594    1.1486   -5.7644 C   0  0  2  0  0  0  0  0  0  0  0  0
    6.6109    1.3972   -4.6542 C   0  0  0  0  0  0  0  0  0  0  0  0
    6.3624    2.4083   -3.6352 N   0  0  0  0  0  0  0  0  0  0  0  0
    5.1847    2.3386   -6.6600 C   0  0  1  0  0  0  0  0  0  0  0  0
    4.6809    1.8234   -7.9109 O   0  0  0  0  0  0  0  0  0  0  0  0
    4.1066    3.2441   -6.0406 C   0  0  2  0  0  0  0  0  0  0  0  0
    4.6856    4.0890   -5.0373 O   0  0  0  0  0  0  0  0  0  0  0  0
    2.9316    2.4513   -5.4292 C   0  0  1  0  0  0  0  0  0  0  0  0
    1.9427    2.0490   -6.4634 N   0  0  0  0  0  0  0  0  0  0  0  0
   -0.8097   -1.4090   -0.6629 O   0  0  0  0  0  0  0  0  0  0  0  0
   -0.8982   -1.6073    0.7647 C   0  0  2  0  0  0  0  0  0  0  0  0
   -0.9497   -0.2559    1.4720 C   0  0  0  0  0  0  0  0  0  0  0  0
    0.2876    0.4456    1.3560 O   0  0  0  0  0  0  0  0  0  0  0  0
    0.5673   -5.0139    3.8840 C   0  0  2  0  0  0  0  0  0  0  0  0
   -0.6424   -5.7413    3.4284 N   0  0  0  0  0  0  0  0  0  0  0  0
    0.2945   -4.2717    5.2005 C   0  0  1  0  0  0  0  0  0  0  0  0
   -0.1318   -5.1902    6.2264 O   0  0  0  0  0  0  0  0  0  0  0  0
    1.5669   -3.5639    5.6672 C   0  0  2  0  0  0  0  0  0  0  0  0
    1.3091   -2.8613    6.8836 O   0  0  0  0  0  0  0  0  0  0  0  0
    1.4514    0.1240    2.9532 H   0  0  0  0  0  0  0  0  0  0  0  0
    2.5748   -1.0182    2.7783 H   0  0  0  0  0  0  0  0  0  0  0  0
    0.4010   -1.4205    4.1082 H   0  0  0  0  0  0  0  0  0  0  0  0
    1.3951   -0.7661    5.4065 H   0  0  0  0  0  0  0  0  0  0  0  0
    3.1760   -2.4184    4.8803 H   0  0  0  0  0  0  0  0  0  0  0  0
    1.4464   -4.6120    1.9772 H   0  0  0  0  0  0  0  0  0  0  0  0
    1.2136   -1.9457    1.1730 H   0  0  0  0  0  0  0  0  0  0  0  0
    1.2156   -3.9944   -0.1759 H   0  0  0  0  0  0  0  0  0  0  0  0
   -0.6908   -4.8421    0.9722 H   0  0  0  0  0  0  0  0  0  0  0  0
   -0.6166   -3.0061   -1.9625 H   0  0  0  0  0  0  0  0  0  0  0  0
    0.4605   -0.2517   -2.5983 H   0  0  0  0  0  0  0  0  0  0  0  0
   -0.6006   -2.2311   -3.8270 H   0  0  0  0  0  0  0  0  0  0  0  0
   -0.5106   -0.1533   -4.7088 H   0  0  0  0  0  0  0  0  0  0  0  0
    0.7619   -3.1733   -5.7316 H   0  0  0  0  0  0  0  0  0  0  0  0
    1.9878   -4.0804   -3.2831 H   0  0  0  0  0  0  0  0  0  0  0  0
    1.5333   -4.9249   -4.5664 H   0  0  0  0  0  0  0  0  0  0  0  0
    2.6239   -1.7197   -5.8606 H   0  0  0  0  0  0  0  0  0  0  0  0
    3.2629   -3.2806   -5.4092 H   0  0  0  0  0  0  0  0  0  0  0  0
    4.3130   -1.4322   -4.1649 H   0  0  0  0  0  0  0  0  0  0  0  0
    2.9206   -2.7392   -2.0650 H   0  0  0  0  0  0  0  0  0  0  0  0
    4.4959   -2.4863   -2.2873 H   0  0  0  0  0  0  0  0  0  0  0  0
    2.9564   -0.1794   -2.4045 H   0  0  0  0  0  0  0  0  0  0  0  0
    3.8853    1.5934   -3.6536 H   0  0  0  0  0  0  0  0  0  0  0  0
    6.0458    0.4128   -6.4206 H   0  0  0  0  0  0  0  0  0  0  0  0
    6.7935    0.4496   -4.1337 H   0  0  0  0  0  0  0  0  0  0  0  0
    7.5522    1.6709   -5.1452 H   0  0  0  0  0  0  0  0  0  0  0  0
    5.7408    2.0608   -2.9110 H   0  0  0  0  0  0  0  0  0  0  0  0
    5.9071    3.2326   -4.0486 H   0  0  0  0  0  0  0  0  0  0  0  0
    6.0816    2.9211   -6.8979 H   0  0  0  0  0  0  0  0  0  0  0  0
    4.3549    0.9176   -7.7498 H   0  0  0  0  0  0  0  0  0  0  0  0
    3.7242    3.9136   -6.8229 H   0  0  0  0  0  0  0  0  0  0  0  0
    4.1409    4.8995   -5.0144 H   0  0  0  0  0  0  0  0  0  0  0  0
    2.3760    3.1004   -4.7406 H   0  0  0  0  0  0  0  0  0  0  0  0
    1.4131    1.2572   -6.0741 H   0  0  0  0  0  0  0  0  0  0  0  0
    2.4328    1.6561   -7.2673 H   0  0  0  0  0  0  0  0  0  0  0  0
   -1.8516   -2.1162    0.9604 H   0  0  0  0  0  0  0  0  0  0  0  0
   -1.7314    0.3655    1.0209 H   0  0  0  0  0  0  0  0  0  0  0  0
   -1.1700   -0.3796    2.5360 H   0  0  0  0  0  0  0  0  0  0  0  0
    0.0688    1.3922    1.2831 H   0  0  0  0  0  0  0  0  0  0  0  0
    1.3393   -5.7710    4.0745 H   0  0  0  0  0  0  0  0  0  0  0  0
   -1.3880   -5.0530    3.2870 H   0  0  0  0  0  0  0  0  0  0  0  0
   -0.9824   -6.3061    4.2132 H   0  0  0  0  0  0  0  0  0  0  0  0
   -0.5220   -3.5481    5.0905 H   0  0  0  0  0  0  0  0  0  0  0  0
    0.5215   -5.9127    6.2778 H   0  0  0  0  0  0  0  0  0  0  0  0
    2.3145   -4.3307    5.9092 H   0  0  0  0  0  0  0  0  0  0  0  0
    0.7264   -3.4365    7.4181 H   0  0  0  0  0  0  0  0  0  0  0  0
  1  2  1  0  0  0  0
  1 43  1  0  0  0  0
  1 44  1  0  0  0  0
  2  3  1  0  0  0  0
  2 45  1  0  0  0  0
  2 46  1  0  0  0  0
  3  4  1  0  0  0  0
  3 41  1  0  0  0  0
  3 47  1  1  0  0  0
  4  5  1  0  0  0  0
  5 37  1  0  0  0  0
  5  6  1  0  0  0  0
  5 48  1  6  0  0  0
  7  8  1  0  0  0  0
  7 34  1  0  0  0  0
  7  6  1  0  0  0  0
  7 49  1  1  0  0  0
  8  9  1  0  0  0  0
  8 10  1  0  0  0  0
  8 50  1  6  0  0  0
  9 51  1  0  0  0  0
 10 33  1  0  0  0  0
 10 11  1  0  0  0  0
 10 52  1  6  0  0  0
 11 12  1  0  0  0  0
 12 13  1  0  0  0  0
 12 20  1  0  0  0  0
 12 53  1  1  0  0  0
 13 14  1  0  0  0  0
 13 15  1  0  0  0  0
 13 54  1  1  0  0  0
 14 55  1  0  0  0  0
 15 17  1  0  0  0  0
 15 16  1  0  0  0  0
 15 56  1  6  0  0  0
 16 57  1  0  0  0  0
 16 58  1  0  0  0  0
 17 18  1  0  0  0  0
 17 59  1  0  0  0  0
 17 60  1  0  0  0  0
 18 20  1  0  0  0  0
 18 19  1  0  0  0  0
 18 61  1  6  0  0  0
 19 62  1  0  0  0  0
 19 63  1  0  0  0  0
 20 21  1  0  0  0  0
 20 64  1  1  0  0  0
 22 23  1  0  0  0  0
 22 31  1  0  0  0  0
 22 21  1  0  0  0  0
 22 65  1  1  0  0  0
 23 24  1  0  0  0  0
 24 27  1  0  0  0  0
 24 25  1  0  0  0  0
 24 66  1  6  0  0  0
 25 26  1  0  0  0  0
 25 67  1  0  0  0  0
 25 68  1  0  0  0  0
 26 69  1  0  0  0  0
 26 70  1  0  0  0  0
 27 28  1  0  0  0  0
 27 29  1  0  0  0  0
 27 71  1  6  0  0  0
 28 72  1  0  0  0  0
 29 31  1  0  0  0  0
 29 30  1  0  0  0  0
 29 73  1  6  0  0  0
 30 74  1  0  0  0  0
 31 32  1  0  0  0  0
 31 75  1  1  0  0  0
 32 76  1  0  0  0  0
 32 77  1  0  0  0  0
 33 34  1  0  0  0  0
 34 35  1  0  0  0  0
 34 78  1  1  0  0  0
 35 36  1  0  0  0  0
 35 79  1  0  0  0  0
 35 80  1  0  0  0  0
 36 81  1  0  0  0  0
 37 39  1  0  0  0  0
 37 38  1  0  0  0  0
 37 82  1  1  0  0  0
 38 83  1  0  0  0  0
 38 84  1  0  0  0  0
 39 40  1  0  0  0  0
 39 41  1  0  0  0  0
 39 85  1  6  0  0  0
 40 86  1  0  0  0  0
 41 42  1  0  0  0  0
 41 87  1  1  0  0  0
 42 88  1  0  0  0  0
M  END
$$$$
