CHEBI:7963
 OpenBabel04242411123D

 41 42  0  0  1  0  0  0  0  0999 V2000
    4.5565    2.7186    1.6630 C   0  0  0  0  0  0  0  0  0  0  0  0
    3.6482    1.5435    2.0373 C   0  0  0  0  0  0  0  0  0  0  0  0
    4.2111    0.8094    3.2626 C   0  0  0  0  0  0  0  0  0  0  0  0
    3.6471    0.3440    0.6180 S   0  0  0  0  0  0  0  0  0  0  0  0
    2.0027   -0.3162    1.0939 C   0  0  2  0  0  0  0  0  0  0  0  0
    0.8596   -0.2948    0.0530 C   0  0  2  0  0  0  0  0  0  0  0  0
    1.2251   -0.0954   -1.3756 N   0  0  0  0  0  0  0  0  0  0  0  0
    1.8375   -1.0896   -2.1006 C   0  0  0  0  0  0  0  0  0  0  0  0
    1.9682   -2.2280   -1.6496 O   0  0  0  0  0  0  0  0  0  0  0  0
    2.2845   -0.7421   -3.5133 C   0  0  0  0  0  0  0  0  0  0  0  0
    2.4989    0.7273   -3.7940 C   0  0  0  0  0  0  0  0  0  0  0  0
    3.5929    1.4034   -3.2358 C   0  0  0  0  0  0  0  0  0  0  0  0
    3.7626    2.7714   -3.4504 C   0  0  0  0  0  0  0  0  0  0  0  0
    2.8475    3.4747   -4.2307 C   0  0  0  0  0  0  0  0  0  0  0  0
    1.7615    2.8108   -4.7973 C   0  0  0  0  0  0  0  0  0  0  0  0
    1.5856    1.4436   -4.5793 C   0  0  0  0  0  0  0  0  0  0  0  0
    0.3986    0.9759    0.8024 C   0  0  0  0  0  0  0  0  0  0  0  0
   -0.3464    1.8996    0.5595 O   0  0  0  0  0  0  0  0  0  0  0  0
    1.3444    0.8097    1.7775 N   0  0  0  0  0  0  0  0  0  0  0  0
    2.1739    1.9600    2.1732 C   0  0  1  0  0  0  0  0  0  0  0  0
    1.8586    2.5510    3.5471 C   0  0  0  0  0  0  0  0  0  0  0  0
    1.2230    1.8569    4.3969 O   0  0  0  0  0  0  0  0  0  0  0  0
    2.2298    3.7402    3.7886 O   0  5  0  0  0  0  0  0  0  0  0  0
    0.9059    3.7692    5.9215 K   0  3  0  0  0  0  0  0  0  0  0  0
    5.5855    2.3900    1.4750 H   0  0  0  0  0  0  0  0  0  0  0  0
    4.5979    3.4559    2.4719 H   0  0  0  0  0  0  0  0  0  0  0  0
    4.2019    3.2386    0.7653 H   0  0  0  0  0  0  0  0  0  0  0  0
    5.2162    0.4156    3.0690 H   0  0  0  0  0  0  0  0  0  0  0  0
    3.5761   -0.0283    3.5721 H   0  0  0  0  0  0  0  0  0  0  0  0
    4.2994    1.4862    4.1201 H   0  0  0  0  0  0  0  0  0  0  0  0
    2.0399   -1.2141    1.7187 H   0  0  0  0  0  0  0  0  0  0  0  0
    0.1390   -1.1148    0.1626 H   0  0  0  0  0  0  0  0  0  0  0  0
    1.2099    0.8484   -1.7518 H   0  0  0  0  0  0  0  0  0  0  0  0
    1.5382   -1.1546   -4.2028 H   0  0  0  0  0  0  0  0  0  0  0  0
    3.2269   -1.2692   -3.7077 H   0  0  0  0  0  0  0  0  0  0  0  0
    4.3132    0.8703   -2.6173 H   0  0  0  0  0  0  0  0  0  0  0  0
    4.6079    3.2891   -3.0043 H   0  0  0  0  0  0  0  0  0  0  0  0
    2.9800    4.5408   -4.3961 H   0  0  0  0  0  0  0  0  0  0  0  0
    1.0484    3.3602   -5.4065 H   0  0  0  0  0  0  0  0  0  0  0  0
    0.7274    0.9437   -5.0233 H   0  0  0  0  0  0  0  0  0  0  0  0
    1.9613    2.7628    1.4510 H   0  0  0  0  0  0  0  0  0  0  0  0
  1  2  1  0  0  0  0
  1 25  1  0  0  0  0
  1 26  1  0  0  0  0
  1 27  1  0  0  0  0
  2  3  1  0  0  0  0
  2  4  1  0  0  0  0
  2 20  1  0  0  0  0
  3 28  1  0  0  0  0
  3 29  1  0  0  0  0
  3 30  1  0  0  0  0
  4  5  1  0  0  0  0
  5  6  1  0  0  0  0
  5 19  1  0  0  0  0
  5 31  1  1  0  0  0
  6  7  1  0  0  0  0
  6 17  1  0  0  0  0
  6 32  1  1  0  0  0
  7  8  1  0  0  0  0
  7 33  1  0  0  0  0
  8  9  2  0  0  0  0
  8 10  1  0  0  0  0
 10 11  1  0  0  0  0
 10 34  1  0  0  0  0
 10 35  1  0  0  0  0
 11 12  1  0  0  0  0
 11 16  2  0  0  0  0
 12 13  2  0  0  0  0
 12 36  1  0  0  0  0
 13 14  1  0  0  0  0
 13 37  1  0  0  0  0
 14 15  2  0  0  0  0
 14 38  1  0  0  0  0
 15 16  1  0  0  0  0
 15 39  1  0  0  0  0
 16 40  1  0  0  0  0
 17 18  2  0  0  0  0
 17 19  1  0  0  0  0
 19 20  1  0  0  0  0
 20 21  1  0  0  0  0
 20 41  1  6  0  0  0
 21 22  2  0  0  0  0
 21 23  1  0  0  0  0
M  CHG  2  23  -1  24   1
M  END
$$$$
