CHEBI:17289
 OpenBabel04242416123D

 14 14  0  0  0  0  0  0  0  0999 V2000
    0.9546    0.0160    0.0275 N   0  0  0  0  0  0  0  0  0  0  0  0
    2.4180    0.0186    0.0895 C   0  0  0  0  0  0  0  0  0  0  0  0
    2.9713    1.1397    0.9394 C   0  0  0  0  0  0  0  0  0  0  0  0
    4.3303    0.5957    1.3032 C   0  0  0  0  0  0  0  0  0  0  0  0
    4.1380   -0.8099    1.4745 O   0  0  0  0  0  0  0  0  0  0  0  0
    3.0075   -1.1955    0.7976 C   0  0  0  0  0  0  0  0  0  0  0  0
    2.5834   -2.3395    0.7846 O   0  0  0  0  0  0  0  0  0  0  0  0
    0.6009    0.9539   -0.1475 H   0  0  0  0  0  0  0  0  0  0  0  0
    0.5656   -0.2902    0.9200 H   0  0  0  0  0  0  0  0  0  0  0  0
    2.8328    0.0525   -0.9241 H   0  0  0  0  0  0  0  0  0  0  0  0
    2.3739    1.2707    1.8511 H   0  0  0  0  0  0  0  0  0  0  0  0
    3.0195    2.1019    0.4218 H   0  0  0  0  0  0  0  0  0  0  0  0
    4.7077    1.0308    2.2331 H   0  0  0  0  0  0  0  0  0  0  0  0
    5.0696    0.7542    0.5108 H   0  0  0  0  0  0  0  0  0  0  0  0
  1  2  1  0  0  0  0
  1  8  1  0  0  0  0
  1  9  1  0  0  0  0
  2  3  1  0  0  0  0
  2  6  1  0  0  0  0
  2 10  1  0  0  0  0
  3  4  1  0  0  0  0
  3 11  1  0  0  0  0
  3 12  1  0  0  0  0
  4  5  1  0  0  0  0
  4 13  1  0  0  0  0
  4 14  1  0  0  0  0
  5  6  1  0  0  0  0
  6  7  2  0  0  0  0
M  END
$$$$
