CHEBI:16123
 OpenBabel04242413513D

 28 29  0  0  1  0  0  0  0  0999 V2000
    1.0306    0.0570   -0.0927 C   0  0  0  0  0  0  0  0  0  0  0  0
    2.5602   -0.0870   -0.0868 C   0  0  0  0  0  0  0  0  0  0  0  0
    2.9620   -0.7975    1.2145 C   0  0  0  0  0  0  0  0  0  0  0  0
    3.1144    1.2445   -0.0308 O   0  0  0  0  0  0  0  0  0  0  0  0
    3.9716    1.5669   -1.1408 C   0  0  2  0  0  0  0  0  0  0  0  0
    4.4863    2.9849   -0.9445 C   0  0  0  0  0  0  0  0  0  0  0  0
    3.1745    1.4251   -2.4495 C   0  0  0  0  0  0  0  0  0  0  0  0
    2.7003   -0.0278   -2.6113 C   0  0  0  0  0  0  0  0  0  0  0  0
    3.0866   -0.8315   -1.3512 C   0  0  1  0  0  0  0  0  0  0  0  0
    4.6286   -0.8919   -1.3212 C   0  0  0  0  0  0  0  0  0  0  0  0
    5.1143    0.5368   -1.1887 C   0  0  0  0  0  0  0  0  0  0  0  0
    6.3097    0.8157   -1.1612 O   0  0  0  0  0  0  0  0  0  0  0  0
    0.6838    0.7149   -0.8956 H   0  0  0  0  0  0  0  0  0  0  0  0
    0.6805    0.5248    0.8352 H   0  0  0  0  0  0  0  0  0  0  0  0
    0.5377   -0.9151   -0.1946 H   0  0  0  0  0  0  0  0  0  0  0  0
    4.0429   -0.7611    1.3832 H   0  0  0  0  0  0  0  0  0  0  0  0
    2.6373   -1.8429    1.2167 H   0  0  0  0  0  0  0  0  0  0  0  0
    2.5177   -0.2979    2.0837 H   0  0  0  0  0  0  0  0  0  0  0  0
    3.6558    3.6968   -0.8822 H   0  0  0  0  0  0  0  0  0  0  0  0
    5.1497    3.2922   -1.7597 H   0  0  0  0  0  0  0  0  0  0  0  0
    5.0432    3.0693   -0.0041 H   0  0  0  0  0  0  0  0  0  0  0  0
    3.7808    1.7128   -3.3167 H   0  0  0  0  0  0  0  0  0  0  0  0
    2.2968    2.0828   -2.4290 H   0  0  0  0  0  0  0  0  0  0  0  0
    3.1622   -0.4724   -3.5017 H   0  0  0  0  0  0  0  0  0  0  0  0
    1.6200   -0.0585   -2.7893 H   0  0  0  0  0  0  0  0  0  0  0  0
    2.6757   -1.8456   -1.4123 H   0  0  0  0  0  0  0  0  0  0  0  0
    5.0205   -1.3147   -2.2521 H   0  0  0  0  0  0  0  0  0  0  0  0
    5.0000   -1.4850   -0.4820 H   0  0  0  0  0  0  0  0  0  0  0  0
  1  2  1  0  0  0  0
  1 13  1  0  0  0  0
  1 14  1  0  0  0  0
  1 15  1  0  0  0  0
  2  4  1  0  0  0  0
  2  9  1  0  0  0  0
  2  3  1  0  0  0  0
  3 16  1  0  0  0  0
  3 17  1  0  0  0  0
  3 18  1  0  0  0  0
  4  5  1  0  0  0  0
  5  7  1  0  0  0  0
  5 11  1  0  0  0  0
  5  6  1  1  0  0  0
  6 19  1  0  0  0  0
  6 20  1  0  0  0  0
  6 21  1  0  0  0  0
  7  8  1  0  0  0  0
  7 22  1  0  0  0  0
  7 23  1  0  0  0  0
  8  9  1  0  0  0  0
  8 24  1  0  0  0  0
  8 25  1  0  0  0  0
  9 10  1  0  0  0  0
  9 26  1  6  0  0  0
 10 11  1  0  0  0  0
 10 27  1  0  0  0  0
 10 28  1  0  0  0  0
 11 12  2  0  0  0  0
M  END
$$$$
