CHEBI:17140
 OpenBabel04242415553D

 20 19  0  0  1  0  0  0  0  0999 V2000
    3.1316    1.3462    0.0169 O   0  0  0  0  0  0  0  0  0  0  0  0
    4.3238    1.1439   -0.2396 C   0  0  0  0  0  0  0  0  0  0  0  0
    5.1510    2.2106   -0.9473 C   0  0  0  0  0  0  0  0  0  0  0  0
    4.4118    3.4096   -1.1480 O   0  0  0  0  0  0  0  0  0  0  0  0
    5.0284   -0.1585    0.1517 C   0  0  1  0  0  0  0  0  0  0  0  0
    6.4011   -0.1626   -0.2541 O   0  0  0  0  0  0  0  0  0  0  0  0
    4.3609   -1.3977   -0.4546 C   0  0  2  0  0  0  0  0  0  0  0  0
    4.5517   -1.3646   -1.8839 O   0  0  0  0  0  0  0  0  0  0  0  0
    2.8778   -1.5869   -0.1351 C   0  0  0  0  0  0  0  0  0  0  0  0
    2.4782   -2.8534   -0.6723 O   0  0  0  0  0  0  0  0  0  0  0  0
    5.4649    1.8331   -1.9238 H   0  0  0  0  0  0  0  0  0  0  0  0
    6.0253    2.4557   -0.3388 H   0  0  0  0  0  0  0  0  0  0  0  0
    3.4673    3.1646   -1.0834 H   0  0  0  0  0  0  0  0  0  0  0  0
    5.0165   -0.2101    1.2457 H   0  0  0  0  0  0  0  0  0  0  0  0
    6.4033   -0.5035   -1.1741 H   0  0  0  0  0  0  0  0  0  0  0  0
    4.9125   -2.2866   -0.1223 H   0  0  0  0  0  0  0  0  0  0  0  0
    4.0083   -2.1090   -2.2198 H   0  0  0  0  0  0  0  0  0  0  0  0
    2.2525   -0.8359   -0.6231 H   0  0  0  0  0  0  0  0  0  0  0  0
    2.6991   -1.5907    0.9439 H   0  0  0  0  0  0  0  0  0  0  0  0
    1.5384   -2.9698   -0.4420 H   0  0  0  0  0  0  0  0  0  0  0  0
  1  2  2  0  0  0  0
  2  3  1  0  0  0  0
  2  5  1  0  0  0  0
  3  4  1  0  0  0  0
  3 11  1  0  0  0  0
  3 12  1  0  0  0  0
  4 13  1  0  0  0  0
  5  6  1  0  0  0  0
  5 14  1  6  0  0  0
  6 15  1  0  0  0  0
  7  9  1  0  0  0  0
  7  8  1  0  0  0  0
  7  5  1  0  0  0  0
  7 16  1  1  0  0  0
  8 17  1  0  0  0  0
  9 10  1  0  0  0  0
  9 18  1  0  0  0  0
  9 19  1  0  0  0  0
 10 20  1  0  0  0  0
M  END
$$$$
