CHEBI:16084
 OpenBabel04242413473D

 29 29  0  0  1  0  0  0  0  0999 V2000
   10.0366   -1.4806    1.4116 O   0  0  0  0  0  0  0  0  0  0  0  0
    9.9867   -0.5524    2.5717 P   0  0  0  0  0  0  0  0  0  0  0  0
    9.3188   -1.1671    3.8841 O   0  0  0  0  0  0  0  0  0  0  0  0
   11.4225   -0.1382    3.1286 O   0  0  0  0  0  0  0  0  0  0  0  0
    9.2258    0.8464    2.3965 O   0  0  0  0  0  0  0  0  0  0  0  0
    8.1215    0.8989    1.5058 C   0  0  0  0  0  0  0  0  0  0  0  0
    6.8065    0.5879    2.2184 C   0  0  1  0  0  0  0  0  0  0  0  0
    6.8831   -0.7334    2.8024 O   0  0  0  0  0  0  0  0  0  0  0  0
    6.1670   -0.7015    4.0489 C   0  0  2  0  0  0  0  0  0  0  0  0
    6.7678   -1.6733    4.9029 O   0  0  0  0  0  0  0  0  0  0  0  0
    4.6879   -1.0860    3.8249 C   0  0  0  0  0  0  0  0  0  0  0  0
    3.9527   -0.1092    3.0834 O   0  0  0  0  0  0  0  0  0  0  0  0
    6.3841    0.7178    4.5953 C   0  0  1  0  0  0  0  0  0  0  0  0
    7.6307    0.7553    5.3210 O   0  0  0  0  0  0  0  0  0  0  0  0
    6.4641    1.5800    3.3416 C   0  0  2  0  0  0  0  0  0  0  0  0
    5.2116    2.2193    3.0753 O   0  0  0  0  0  0  0  0  0  0  0  0
    8.4923   -1.6522    3.6551 H   0  0  0  0  0  0  0  0  0  0  0  0
   12.0069   -0.9140    3.1891 H   0  0  0  0  0  0  0  0  0  0  0  0
    8.2796    0.1975    0.6801 H   0  0  0  0  0  0  0  0  0  0  0  0
    8.0867    1.9054    1.0759 H   0  0  0  0  0  0  0  0  0  0  0  0
    6.0117    0.5668    1.4631 H   0  0  0  0  0  0  0  0  0  0  0  0
    7.3036   -1.1630    5.5475 H   0  0  0  0  0  0  0  0  0  0  0  0
    4.6363   -2.0328    3.2752 H   0  0  0  0  0  0  0  0  0  0  0  0
    4.1857   -1.2303    4.7876 H   0  0  0  0  0  0  0  0  0  0  0  0
    3.0942   -0.5241    2.8701 H   0  0  0  0  0  0  0  0  0  0  0  0
    5.5972    1.0189    5.2932 H   0  0  0  0  0  0  0  0  0  0  0  0
    8.3645    0.5573    4.7013 H   0  0  0  0  0  0  0  0  0  0  0  0
    7.2092    2.3762    3.4354 H   0  0  0  0  0  0  0  0  0  0  0  0
    4.5298    1.5152    2.9964 H   0  0  0  0  0  0  0  0  0  0  0  0
  1  2  2  0  0  0  0
  2  3  1  0  0  0  0
  2  4  1  0  0  0  0
  2  5  1  0  0  0  0
  3 17  1  0  0  0  0
  4 18  1  0  0  0  0
  5  6  1  0  0  0  0
  6 19  1  0  0  0  0
  6 20  1  0  0  0  0
  7  8  1  0  0  0  0
  7 15  1  0  0  0  0
  7  6  1  0  0  0  0
  7 21  1  6  0  0  0
  8  9  1  0  0  0  0
  9 13  1  0  0  0  0
  9 11  1  0  0  0  0
  9 10  1  1  0  0  0
 10 22  1  0  0  0  0
 11 12  1  0  0  0  0
 11 23  1  0  0  0  0
 11 24  1  0  0  0  0
 12 25  1  0  0  0  0
 13 14  1  0  0  0  0
 13 15  1  0  0  0  0
 13 26  1  1  0  0  0
 14 27  1  0  0  0  0
 15 16  1  0  0  0  0
 15 28  1  1  0  0  0
 16 29  1  0  0  0  0
M  END
$$$$
