CHEBI:15723
 OpenBabel04242413103D

 54 56  0  0  1  0  0  0  0  0999 V2000
    4.9777   -2.5740    1.1709 O   0  0  0  0  0  0  0  0  0  0  0  0
    5.5428   -2.3607    2.2314 C   0  0  0  0  0  0  0  0  0  0  0  0
    6.8480   -2.0482    2.3964 O   0  0  0  0  0  0  0  0  0  0  0  0
    7.5935   -1.8324    1.1804 C   0  0  0  0  0  0  0  0  0  0  0  0
    7.3903   -0.3873    0.7044 C   0  0  1  0  0  0  0  0  0  0  0  0
    7.9436    0.4746    1.7034 O   0  0  0  0  0  0  0  0  0  0  0  0
    7.7285    1.8643    1.4411 C   0  0  1  0  0  0  0  0  0  0  0  0
    8.3073    2.6072    2.5190 O   0  0  0  0  0  0  0  0  0  0  0  0
    7.5759    2.5688    3.6559 C   0  0  0  0  0  0  0  0  0  0  0  0
    6.4352    2.1508    3.7741 O   0  0  0  0  0  0  0  0  0  0  0  0
    8.4067    2.9974    4.8086 C   0  0  0  0  0  0  0  0  0  0  0  0
    7.9946    2.5952    6.0925 C   0  0  0  0  0  0  0  0  0  0  0  0
    8.7786    2.9198    7.1934 C   0  0  0  0  0  0  0  0  0  0  0  0
    8.4405    2.5349    8.4606 O   0  0  0  0  0  0  0  0  0  0  0  0
    9.9532    3.6440    7.0252 C   0  0  0  0  0  0  0  0  0  0  0  0
   10.7387    3.9557    8.1016 O   0  0  0  0  0  0  0  0  0  0  0  0
   10.3511    4.0524    5.7584 C   0  0  0  0  0  0  0  0  0  0  0  0
   11.5083    4.7585    5.6006 O   0  0  0  0  0  0  0  0  0  0  0  0
    9.5876    3.7377    4.6424 C   0  0  0  0  0  0  0  0  0  0  0  0
    8.4357    2.2615    0.1330 C   0  0  2  0  0  0  0  0  0  0  0  0
    8.1557    3.6229   -0.2260 O   0  0  0  0  0  0  0  0  0  0  0  0
    7.9677    1.3518   -1.0064 C   0  0  1  0  0  0  0  0  0  0  0  0
    8.7471    1.6320   -2.1808 O   0  0  0  0  0  0  0  0  0  0  0  0
    8.0867   -0.1310   -0.6360 C   0  0  2  0  0  0  0  0  0  0  0  0
    7.5401   -0.9168   -1.6997 O   0  0  0  0  0  0  0  0  0  0  0  0
    4.8731   -2.4371    3.5483 C   0  0  0  0  0  0  0  0  0  0  0  0
    3.8336   -3.3692    3.7102 C   0  0  0  0  0  0  0  0  0  0  0  0
    3.1656   -3.4326    4.9275 C   0  0  0  0  0  0  0  0  0  0  0  0
    2.1528   -4.3216    5.1554 O   0  0  0  0  0  0  0  0  0  0  0  0
    3.5156   -2.5715    5.9625 C   0  0  0  0  0  0  0  0  0  0  0  0
    2.8522   -2.6169    7.1591 O   0  0  0  0  0  0  0  0  0  0  0  0
    4.5388   -1.6453    5.7948 C   0  0  0  0  0  0  0  0  0  0  0  0
    4.8623   -0.7977    6.8157 O   0  0  0  0  0  0  0  0  0  0  0  0
    5.2279   -1.5680    4.5925 C   0  0  0  0  0  0  0  0  0  0  0  0
    7.3103   -2.5681    0.4193 H   0  0  0  0  0  0  0  0  0  0  0  0
    8.6455   -2.0044    1.4340 H   0  0  0  0  0  0  0  0  0  0  0  0
    6.3141   -0.1868    0.6262 H   0  0  0  0  0  0  0  0  0  0  0  0
    6.6552    2.0868    1.3636 H   0  0  0  0  0  0  0  0  0  0  0  0
    7.0800    2.0181    6.2084 H   0  0  0  0  0  0  0  0  0  0  0  0
    7.6191    2.0122    8.4104 H   0  0  0  0  0  0  0  0  0  0  0  0
   10.2686    3.5595    8.8644 H   0  0  0  0  0  0  0  0  0  0  0  0
   11.8711    4.8459    6.5055 H   0  0  0  0  0  0  0  0  0  0  0  0
    9.9210    4.0610    3.6603 H   0  0  0  0  0  0  0  0  0  0  0  0
    9.5235    2.1871    0.2548 H   0  0  0  0  0  0  0  0  0  0  0  0
    8.5650    3.7441   -1.1061 H   0  0  0  0  0  0  0  0  0  0  0  0
    6.9325    1.5920   -1.2799 H   0  0  0  0  0  0  0  0  0  0  0  0
    8.6032    0.8768   -2.7860 H   0  0  0  0  0  0  0  0  0  0  0  0
    9.1504   -0.3902   -0.5674 H   0  0  0  0  0  0  0  0  0  0  0  0
    6.5665   -0.8644   -1.6654 H   0  0  0  0  0  0  0  0  0  0  0  0
    3.5661   -4.0248    2.8861 H   0  0  0  0  0  0  0  0  0  0  0  0
    2.0227   -4.8556    4.3515 H   0  0  0  0  0  0  0  0  0  0  0  0
    2.1843   -3.3235    7.0384 H   0  0  0  0  0  0  0  0  0  0  0  0
    4.2255   -1.0212    7.5255 H   0  0  0  0  0  0  0  0  0  0  0  0
    6.0111   -0.8245    4.4658 H   0  0  0  0  0  0  0  0  0  0  0  0
  1  2  2  0  0  0  0
  2  3  1  0  0  0  0
  2 26  1  0  0  0  0
  3  4  1  0  0  0  0
  4 35  1  0  0  0  0
  4 36  1  0  0  0  0
  5  6  1  0  0  0  0
  5 24  1  0  0  0  0
  5  4  1  0  0  0  0
  5 37  1  6  0  0  0
  6  7  1  0  0  0  0
  7 20  1  0  0  0  0
  7  8  1  0  0  0  0
  7 38  1  6  0  0  0
  8  9  1  0  0  0  0
  9 10  2  0  0  0  0
  9 11  1  0  0  0  0
 11 12  1  0  0  0  0
 11 19  2  0  0  0  0
 12 13  2  0  0  0  0
 12 39  1  0  0  0  0
 13 14  1  0  0  0  0
 13 15  1  0  0  0  0
 14 40  1  0  0  0  0
 15 16  1  0  0  0  0
 15 17  2  0  0  0  0
 16 41  1  0  0  0  0
 17 18  1  0  0  0  0
 17 19  1  0  0  0  0
 18 42  1  0  0  0  0
 19 43  1  0  0  0  0
 20 21  1  0  0  0  0
 20 22  1  0  0  0  0
 20 44  1  1  0  0  0
 21 45  1  0  0  0  0
 22 23  1  0  0  0  0
 22 24  1  0  0  0  0
 22 46  1  6  0  0  0
 23 47  1  0  0  0  0
 24 25  1  0  0  0  0
 24 48  1  1  0  0  0
 25 49  1  0  0  0  0
 26 27  1  0  0  0  0
 26 34  2  0  0  0  0
 27 28  2  0  0  0  0
 27 50  1  0  0  0  0
 28 29  1  0  0  0  0
 28 30  1  0  0  0  0
 29 51  1  0  0  0  0
 30 31  1  0  0  0  0
 30 32  2  0  0  0  0
 31 52  1  0  0  0  0
 32 33  1  0  0  0  0
 32 34  1  0  0  0  0
 33 53  1  0  0  0  0
 34 54  1  0  0  0  0
M  END
$$$$
