CHEBI:17914
 OpenBabel04242423163D

 87 90  0  0  1  0  0  0  0  0999 V2000
    1.6033   -2.2442   -1.8738 H   0  0  0  0  0  0  0  0  0  0  0  0
    1.7538   -2.9220   -1.1892 O   0  0  0  0  0  0  0  0  0  0  0  0
    3.1671   -3.0403   -1.1395 C   0  0  2  0  0  0  0  0  0  0  0  0
    3.6842   -1.7319   -0.9756 O   0  0  0  0  0  0  0  0  0  0  0  0
    5.1204   -1.6789   -1.0078 C   0  0  2  0  0  0  0  0  0  0  0  0
    5.5259   -0.2398   -0.6683 C   0  0  0  0  0  0  0  0  0  0  0  0
    5.1631    0.6281   -1.7382 O   0  0  0  0  0  0  0  0  0  0  0  0
    5.5057    2.0006   -1.5429 C   0  0  2  0  0  0  0  0  0  0  0  0
    6.9290    2.1385   -1.4614 O   0  0  0  0  0  0  0  0  0  0  0  0
    7.3049    3.4883   -1.1639 C   0  0  2  0  0  0  0  0  0  0  0  0
    8.8101    3.6206   -1.4119 C   0  0  0  0  0  0  0  0  0  0  0  0
    9.3001    4.8729   -0.9413 O   0  0  0  0  0  0  0  0  0  0  0  0
    6.8706    3.8927    0.2656 C   0  0  2  0  0  0  0  0  0  0  0  0
    7.9194    3.7388    1.2417 O   0  0  0  0  0  0  0  0  0  0  0  0
    5.6664    3.0722    0.7647 C   0  0  2  0  0  0  0  0  0  0  0  0
    6.1258    1.9113    1.4716 O   0  0  0  0  0  0  0  0  0  0  0  0
    4.7278    2.6852   -0.3802 C   0  0  1  0  0  0  0  0  0  0  0  0
    4.1090    3.8948   -0.8664 O   0  0  0  0  0  0  0  0  0  0  0  0
    5.6937   -2.2692   -2.3298 C   0  0  2  0  0  0  0  0  0  0  0  0
    6.5928   -1.4485   -3.0906 O   0  0  0  0  0  0  0  0  0  0  0  0
    4.5831   -2.8437   -3.2410 C   0  0  2  0  0  0  0  0  0  0  0  0
    3.7152   -1.8926   -3.8827 O   0  0  0  0  0  0  0  0  0  0  0  0
    4.3096   -0.8789   -4.6968 C   0  0  2  0  0  0  0  0  0  0  0  0
    3.2035   -0.0575   -5.1383 O   0  0  0  0  0  0  0  0  0  0  0  0
    3.5103    0.7153   -6.3102 C   0  0  2  0  0  0  0  0  0  0  0  0
    2.4599    1.8186   -6.4748 C   0  0  0  0  0  0  0  0  0  0  0  0
    2.7147    2.5692   -7.6611 O   0  0  0  0  0  0  0  0  0  0  0  0
    1.7702    3.6255   -7.8674 C   0  0  2  0  0  0  0  0  0  0  0  0
    0.4373    3.0995   -7.8449 O   0  0  0  0  0  0  0  0  0  0  0  0
   -0.5570    4.1092   -8.0514 C   0  0  2  0  0  0  0  0  0  0  0  0
   -1.9323    3.4998   -7.7722 C   0  0  0  0  0  0  0  0  0  0  0  0
   -2.9320    4.5112   -7.7970 O   0  0  0  0  0  0  0  0  0  0  0  0
   -0.4237    4.6156   -9.4919 C   0  0  2  0  0  0  0  0  0  0  0  0
   -0.5418    3.5363  -10.4401 O   0  0  0  0  0  0  0  0  0  0  0  0
    0.9646    5.2370   -9.6656 C   0  0  2  0  0  0  0  0  0  0  0  0
    1.1754    5.5995  -11.0416 O   0  0  0  0  0  0  0  0  0  0  0  0
    2.0821    4.2766   -9.2363 C   0  0  1  0  0  0  0  0  0  0  0  0
    3.3175    5.0133   -9.2057 O   0  0  0  0  0  0  0  0  0  0  0  0
    3.6031   -0.2271   -7.5305 C   0  0  2  0  0  0  0  0  0  0  0  0
    2.3207   -0.4616   -8.1422 O   0  0  0  0  0  0  0  0  0  0  0  0
    4.2002   -1.5885   -7.1196 C   0  0  2  0  0  0  0  0  0  0  0  0
    3.1258   -2.5175   -6.8534 O   0  0  0  0  0  0  0  0  0  0  0  0
    5.1162   -1.4610   -5.8994 C   0  0  1  0  0  0  0  0  0  0  0  0
    6.2357   -0.6207   -6.2195 O   0  0  0  0  0  0  0  0  0  0  0  0
    3.6830   -3.7663   -2.4045 C   0  0  1  0  0  0  0  0  0  0  0  0
    4.4290   -4.9372   -2.0265 O   0  0  0  0  0  0  0  0  0  0  0  0
    3.4000   -3.6224   -0.2405 H   0  0  0  0  0  0  0  0  0  0  0  0
    5.4706   -2.3082   -0.1777 H   0  0  0  0  0  0  0  0  0  0  0  0
    4.9915    0.0572    0.2381 H   0  0  0  0  0  0  0  0  0  0  0  0
    6.6045   -0.1865   -0.4860 H   0  0  0  0  0  0  0  0  0  0  0  0
    5.2051    2.4841   -2.4809 H   0  0  0  0  0  0  0  0  0  0  0  0
    6.7899    4.1509   -1.8736 H   0  0  0  0  0  0  0  0  0  0  0  0
    9.3613    2.8165   -0.9116 H   0  0  0  0  0  0  0  0  0  0  0  0
    9.0178    3.5344   -2.4845 H   0  0  0  0  0  0  0  0  0  0  0  0
   10.2089    4.9607   -1.2842 H   0  0  0  0  0  0  0  0  0  0  0  0
    6.6081    4.9578    0.2527 H   0  0  0  0  0  0  0  0  0  0  0  0
    8.6330    4.3448    0.9481 H   0  0  0  0  0  0  0  0  0  0  0  0
    5.1254    3.6775    1.5022 H   0  0  0  0  0  0  0  0  0  0  0  0
    6.9742    2.2002    1.8749 H   0  0  0  0  0  0  0  0  0  0  0  0
    3.9199    2.0310   -0.0344 H   0  0  0  0  0  0  0  0  0  0  0  0
    3.3282    4.0552   -0.3048 H   0  0  0  0  0  0  0  0  0  0  0  0
    6.3247   -3.1136   -2.0218 H   0  0  0  0  0  0  0  0  0  0  0  0
    7.0576   -0.8500   -2.4815 H   0  0  0  0  0  0  0  0  0  0  0  0
    5.0555   -3.4566   -4.0150 H   0  0  0  0  0  0  0  0  0  0  0  0
    4.9271   -0.2183   -4.0883 H   0  0  0  0  0  0  0  0  0  0  0  0
    4.4799    1.2083   -6.1589 H   0  0  0  0  0  0  0  0  0  0  0  0
    1.4588    1.3724   -6.4988 H   0  0  0  0  0  0  0  0  0  0  0  0
    2.4938    2.4849   -5.6039 H   0  0  0  0  0  0  0  0  0  0  0  0
    1.8990    4.3562   -7.0585 H   0  0  0  0  0  0  0  0  0  0  0  0
   -0.3953    4.9367   -7.3475 H   0  0  0  0  0  0  0  0  0  0  0  0
   -2.1843    2.7234   -8.5023 H   0  0  0  0  0  0  0  0  0  0  0  0
   -1.9386    3.0292   -6.7827 H   0  0  0  0  0  0  0  0  0  0  0  0
   -3.7847    4.0670   -7.6427 H   0  0  0  0  0  0  0  0  0  0  0  0
   -1.1972    5.3481   -9.7447 H   0  0  0  0  0  0  0  0  0  0  0  0
   -0.1846    2.7325  -10.0094 H   0  0  0  0  0  0  0  0  0  0  0  0
    1.0363    6.1650   -9.0861 H   0  0  0  0  0  0  0  0  0  0  0  0
    0.6826    4.9328  -11.5652 H   0  0  0  0  0  0  0  0  0  0  0  0
    2.2147    3.4926   -9.9928 H   0  0  0  0  0  0  0  0  0  0  0  0
    3.3780    5.4451  -10.0806 H   0  0  0  0  0  0  0  0  0  0  0  0
    4.2350    0.2516   -8.2875 H   0  0  0  0  0  0  0  0  0  0  0  0
    2.1493   -1.4213   -8.0556 H   0  0  0  0  0  0  0  0  0  0  0  0
    4.7550   -1.9948   -7.9727 H   0  0  0  0  0  0  0  0  0  0  0  0
    2.6558   -2.1812   -6.0603 H   0  0  0  0  0  0  0  0  0  0  0  0
    5.5315   -2.4442   -5.6744 H   0  0  0  0  0  0  0  0  0  0  0  0
    6.8119   -0.6369   -5.4286 H   0  0  0  0  0  0  0  0  0  0  0  0
    2.8397   -4.1134   -3.0143 H   0  0  0  0  0  0  0  0  0  0  0  0
    3.7809   -5.5777   -1.6774 H   0  0  0  0  0  0  0  0  0  0  0  0
  1  2  1  0  0  0  0
  2  3  1  0  0  0  0
  3  4  1  0  0  0  0
  3 45  1  0  0  0  0
  3 47  1  1  0  0  0
  4  5  1  0  0  0  0
  5 19  1  0  0  0  0
  5  6  1  0  0  0  0
  5 48  1  1  0  0  0
  6  7  1  0  0  0  0
  6 49  1  0  0  0  0
  6 50  1  0  0  0  0
  7  8  1  0  0  0  0
  8  9  1  0  0  0  0
  8 17  1  0  0  0  0
  8 51  1  6  0  0  0
  9 10  1  0  0  0  0
 10 13  1  0  0  0  0
 10 11  1  0  0  0  0
 10 52  1  6  0  0  0
 11 12  1  0  0  0  0
 11 53  1  0  0  0  0
 11 54  1  0  0  0  0
 12 55  1  0  0  0  0
 13 15  1  0  0  0  0
 13 14  1  0  0  0  0
 13 56  1  6  0  0  0
 14 57  1  0  0  0  0
 15 17  1  0  0  0  0
 15 16  1  0  0  0  0
 15 58  1  1  0  0  0
 16 59  1  0  0  0  0
 17 18  1  0  0  0  0
 17 60  1  1  0  0  0
 18 61  1  0  0  0  0
 19 21  1  0  0  0  0
 19 20  1  0  0  0  0
 19 62  1  1  0  0  0
 20 63  1  0  0  0  0
 21 45  1  0  0  0  0
 21 22  1  0  0  0  0
 21 64  1  6  0  0  0
 22 23  1  0  0  0  0
 23 24  1  0  0  0  0
 23 43  1  0  0  0  0
 23 65  1  1  0  0  0
 24 25  1  0  0  0  0
 25 39  1  0  0  0  0
 25 26  1  0  0  0  0
 25 66  1  1  0  0  0
 26 27  1  0  0  0  0
 26 67  1  0  0  0  0
 26 68  1  0  0  0  0
 27 28  1  0  0  0  0
 28 29  1  0  0  0  0
 28 37  1  0  0  0  0
 28 69  1  1  0  0  0
 29 30  1  0  0  0  0
 30 33  1  0  0  0  0
 30 31  1  0  0  0  0
 30 70  1  1  0  0  0
 31 32  1  0  0  0  0
 31 71  1  0  0  0  0
 31 72  1  0  0  0  0
 32 73  1  0  0  0  0
 33 35  1  0  0  0  0
 33 34  1  0  0  0  0
 33 74  1  6  0  0  0
 34 75  1  0  0  0  0
 35 37  1  0  0  0  0
 35 36  1  0  0  0  0
 35 76  1  1  0  0  0
 36 77  1  0  0  0  0
 37 38  1  0  0  0  0
 37 78  1  6  0  0  0
 38 79  1  0  0  0  0
 39 41  1  0  0  0  0
 39 40  1  0  0  0  0
 39 80  1  6  0  0  0
 40 81  1  0  0  0  0
 41 43  1  0  0  0  0
 41 42  1  0  0  0  0
 41 82  1  6  0  0  0
 42 83  1  0  0  0  0
 43 44  1  0  0  0  0
 43 84  1  1  0  0  0
 44 85  1  0  0  0  0
 45 46  1  0  0  0  0
 45 86  1  6  0  0  0
 46 87  1  0  0  0  0
M  END
$$$$
