CHEBI:15484
 OpenBabel04242412083D

 97100  0  0  1  0  0  0  0  0999 V2000
    2.9804  -11.9031    1.8677 C   0  0  0  0  0  0  0  0  0  0  0  0
    2.7509  -12.5331    0.4827 C   0  0  0  0  0  0  0  0  0  0  0  0
    1.2360  -12.8383    0.3638 C   0  0  0  0  0  0  0  0  0  0  0  0
    3.1567  -11.5650   -0.6454 C   0  0  0  0  0  0  0  0  0  0  0  0
    2.4826  -10.3134   -0.5690 O   0  0  0  0  0  0  0  0  0  0  0  0
    2.7036   -9.3534   -1.8331 P   0  0  0  0  0  0  0  0  0  0  0  0
    4.0715   -9.3807   -2.4349 O   0  0  0  0  0  0  0  0  0  0  0  0
    1.6333   -9.9038   -2.8965 O   0  0  0  0  0  0  0  0  0  0  0  0
    2.1761   -7.9097   -1.4837 O   0  0  0  0  0  0  0  0  0  0  0  0
    0.7023   -7.4492   -1.1455 P   0  0  0  0  0  0  0  0  0  0  0  0
    0.1291   -7.9400    0.1385 O   0  0  0  0  0  0  0  0  0  0  0  0
   -0.1490   -7.8718   -2.4345 O   0  0  0  0  0  0  0  0  0  0  0  0
    0.7857   -5.8409   -1.2973 O   0  0  0  0  0  0  0  0  0  0  0  0
    1.3554   -5.3434   -2.5026 C   0  0  0  0  0  0  0  0  0  0  0  0
    1.3230   -3.8182   -2.5698 C   0  0  1  0  0  0  0  0  0  0  0  0
   -0.0411   -3.3825   -2.7619 O   0  0  0  0  0  0  0  0  0  0  0  0
   -0.3516   -2.4233   -1.7288 C   0  0  1  0  0  0  0  0  0  0  0  0
   -1.7774   -2.4579   -1.4801 N   0  0  0  0  0  0  0  0  0  0  0  0
   -2.7233   -2.2886   -2.4659 C   0  0  0  0  0  0  0  0  0  0  0  0
   -3.9292   -2.0987   -1.9752 N   0  0  0  0  0  0  0  0  0  0  0  0
   -3.7620   -2.1788   -0.6084 C   0  0  0  0  0  0  0  0  0  0  0  0
   -4.6568   -2.0113    0.4627 C   0  0  0  0  0  0  0  0  0  0  0  0
   -5.9997   -1.6888    0.2895 N   0  0  0  0  0  0  0  0  0  0  0  0
   -4.1862   -2.1116    1.7255 N   0  0  0  0  0  0  0  0  0  0  0  0
   -2.8778   -2.3948    1.8956 C   0  0  0  0  0  0  0  0  0  0  0  0
   -1.9336   -2.5703    0.9541 N   0  0  0  0  0  0  0  0  0  0  0  0
   -2.4383   -2.4324   -0.2818 C   0  0  0  0  0  0  0  0  0  0  0  0
    0.6025   -2.7158   -0.5712 C   0  0  2  0  0  0  0  0  0  0  0  0
    0.7936   -1.5660    0.2482 O   0  0  0  0  0  0  0  0  0  0  0  0
    1.8658   -3.1213   -1.3220 C   0  0  2  0  0  0  0  0  0  0  0  0
    2.5864   -1.9548   -1.7370 O   0  0  0  0  0  0  0  0  0  0  0  0
    3.6977   -1.3985   -0.7292 P   0  0  0  0  0  0  0  0  0  0  0  0
    3.3864   -1.4797    0.7262 O   0  0  0  0  0  0  0  0  0  0  0  0
    5.0081   -2.2315   -1.0951 O   0  0  0  0  0  0  0  0  0  0  0  0
    4.0773    0.0347   -1.3052 O   0  0  0  0  0  0  0  0  0  0  0  0
    3.5363  -13.8623    0.3291 C   0  0  1  0  0  0  0  0  0  0  0  0
    3.2072  -14.4562   -0.9356 O   0  0  0  0  0  0  0  0  0  0  0  0
    5.0779  -13.8072    0.4626 C   0  0  0  0  0  0  0  0  0  0  0  0
    5.7303  -12.8113    0.7422 O   0  0  0  0  0  0  0  0  0  0  0  0
    5.6507  -15.0341    0.1709 N   0  0  0  0  0  0  0  0  0  0  0  0
    7.0562  -15.1697   -0.1451 C   0  0  0  0  0  0  0  0  0  0  0  0
    7.4450  -14.5957   -1.5085 C   0  0  0  0  0  0  0  0  0  0  0  0
    6.5525  -15.0897   -2.6356 C   0  0  0  0  0  0  0  0  0  0  0  0
    5.3418  -14.8781   -2.6264 O   0  0  0  0  0  0  0  0  0  0  0  0
    7.2191  -15.7553   -3.6377 N   0  0  0  0  0  0  0  0  0  0  0  0
    6.6534  -16.2395   -4.8968 C   0  0  0  0  0  0  0  0  0  0  0  0
    5.1389  -16.4132   -5.0379 C   0  0  0  0  0  0  0  0  0  0  0  0
    4.4719  -17.7485   -3.9910 S   0  0  0  0  0  0  0  0  0  0  0  0
    2.7662  -17.4222   -4.2918 C   0  0  0  0  0  0  0  0  0  0  0  0
    2.3569  -17.3296   -5.4429 O   0  0  0  0  0  0  0  0  0  0  0  0
    1.8461  -17.2323   -3.1320 C   0  0  0  0  0  0  0  0  0  0  0  0
    0.4961  -16.9537   -3.4083 C   0  0  0  0  0  0  0  0  0  0  0  0
   -0.4072  -16.6968   -2.3730 C   0  0  0  0  0  0  0  0  0  0  0  0
    0.0288  -16.7100   -1.0501 C   0  0  0  0  0  0  0  0  0  0  0  0
    1.3608  -17.0013   -0.7758 C   0  0  0  0  0  0  0  0  0  0  0  0
    1.8337  -16.9991    0.5052 O   0  0  0  0  0  0  0  0  0  0  0  0
    2.2666  -17.2745   -1.7982 C   0  0  0  0  0  0  0  0  0  0  0  0
    2.8150  -12.6378    2.6642 H   0  0  0  0  0  0  0  0  0  0  0  0
    2.2915  -11.0692    2.0454 H   0  0  0  0  0  0  0  0  0  0  0  0
    3.9946  -11.5101    1.9785 H   0  0  0  0  0  0  0  0  0  0  0  0
    0.6294  -11.9385    0.5148 H   0  0  0  0  0  0  0  0  0  0  0  0
    0.9255  -13.5744    1.1153 H   0  0  0  0  0  0  0  0  0  0  0  0
    0.9786  -13.2437   -0.6210 H   0  0  0  0  0  0  0  0  0  0  0  0
    2.9362  -12.0123   -1.6223 H   0  0  0  0  0  0  0  0  0  0  0  0
    4.2301  -11.3590   -0.6113 H   0  0  0  0  0  0  0  0  0  0  0  0
    2.1101  -10.2035   -3.6971 H   0  0  0  0  0  0  0  0  0  0  0  0
   -0.3280   -8.8335   -2.4451 H   0  0  0  0  0  0  0  0  0  0  0  0
    0.8041   -5.7549   -3.3544 H   0  0  0  0  0  0  0  0  0  0  0  0
    2.3965   -5.6773   -2.5615 H   0  0  0  0  0  0  0  0  0  0  0  0
    1.8754   -3.5067   -3.4645 H   0  0  0  0  0  0  0  0  0  0  0  0
   -0.1520   -1.4219   -2.1350 H   0  0  0  0  0  0  0  0  0  0  0  0
   -2.4625   -2.2862   -3.5172 H   0  0  0  0  0  0  0  0  0  0  0  0
   -6.1803   -1.2699   -0.6165 H   0  0  0  0  0  0  0  0  0  0  0  0
   -6.3631   -1.2088    1.1027 H   0  0  0  0  0  0  0  0  0  0  0  0
   -2.5422   -2.4835    2.9248 H   0  0  0  0  0  0  0  0  0  0  0  0
    0.2535   -3.5553    0.0397 H   0  0  0  0  0  0  0  0  0  0  0  0
    1.5215   -1.7435    0.8809 H   0  0  0  0  0  0  0  0  0  0  0  0
    2.5351   -3.7576   -0.7333 H   0  0  0  0  0  0  0  0  0  0  0  0
    5.6362   -2.1932   -0.3476 H   0  0  0  0  0  0  0  0  0  0  0  0
    4.3172   -0.0076   -2.2476 H   0  0  0  0  0  0  0  0  0  0  0  0
    3.1934  -14.5631    1.1013 H   0  0  0  0  0  0  0  0  0  0  0  0
    3.9833  -14.4021   -1.5378 H   0  0  0  0  0  0  0  0  0  0  0  0
    5.0166  -15.7406   -0.1962 H   0  0  0  0  0  0  0  0  0  0  0  0
    7.2867  -16.2390   -0.1025 H   0  0  0  0  0  0  0  0  0  0  0  0
    7.6358  -14.6650    0.6365 H   0  0  0  0  0  0  0  0  0  0  0  0
    8.4946  -14.8389   -1.7089 H   0  0  0  0  0  0  0  0  0  0  0  0
    7.3692  -13.5022   -1.5041 H   0  0  0  0  0  0  0  0  0  0  0  0
    8.2309  -15.7270   -3.6142 H   0  0  0  0  0  0  0  0  0  0  0  0
    7.1606  -17.1885   -5.1100 H   0  0  0  0  0  0  0  0  0  0  0  0
    6.9930  -15.5328   -5.6634 H   0  0  0  0  0  0  0  0  0  0  0  0
    4.9195  -16.6720   -6.0800 H   0  0  0  0  0  0  0  0  0  0  0  0
    4.6180  -15.4734   -4.8304 H   0  0  0  0  0  0  0  0  0  0  0  0
    0.1415  -16.9224   -4.4376 H   0  0  0  0  0  0  0  0  0  0  0  0
   -1.4466  -16.4751   -2.6024 H   0  0  0  0  0  0  0  0  0  0  0  0
   -0.6756  -16.4918   -0.2536 H   0  0  0  0  0  0  0  0  0  0  0  0
    1.1719  -16.5618    1.0668 H   0  0  0  0  0  0  0  0  0  0  0  0
    3.2984  -17.4689   -1.5272 H   0  0  0  0  0  0  0  0  0  0  0  0
  1  2  1  0  0  0  0
  1 58  1  0  0  0  0
  1 59  1  0  0  0  0
  1 60  1  0  0  0  0
  2  3  1  0  0  0  0
  2  4  1  0  0  0  0
  2 36  1  0  0  0  0
  3 61  1  0  0  0  0
  3 62  1  0  0  0  0
  3 63  1  0  0  0  0
  4  5  1  0  0  0  0
  4 64  1  0  0  0  0
  4 65  1  0  0  0  0
  5  6  1  0  0  0  0
  6  7  2  0  0  0  0
  6  8  1  0  0  0  0
  6  9  1  0  0  0  0
  8 66  1  0  0  0  0
  9 10  1  0  0  0  0
 10 11  2  0  0  0  0
 10 12  1  0  0  0  0
 10 13  1  0  0  0  0
 12 67  1  0  0  0  0
 13 14  1  0  0  0  0
 14 68  1  0  0  0  0
 14 69  1  0  0  0  0
 15 16  1  0  0  0  0
 15 30  1  0  0  0  0
 15 14  1  0  0  0  0
 15 70  1  6  0  0  0
 16 17  1  0  0  0  0
 17 28  1  0  0  0  0
 17 18  1  0  0  0  0
 17 71  1  6  0  0  0
 18 19  1  0  0  0  0
 18 27  1  0  0  0  0
 19 20  2  0  0  0  0
 19 72  1  0  0  0  0
 20 21  1  0  0  0  0
 21 22  1  0  0  0  0
 21 27  2  0  0  0  0
 22 23  1  0  0  0  0
 22 24  2  0  0  0  0
 23 73  1  0  0  0  0
 23 74  1  0  0  0  0
 24 25  1  0  0  0  0
 25 26  2  0  0  0  0
 25 75  1  0  0  0  0
 26 27  1  0  0  0  0
 28 29  1  0  0  0  0
 28 30  1  0  0  0  0
 28 76  1  1  0  0  0
 29 77  1  0  0  0  0
 30 31  1  0  0  0  0
 30 78  1  1  0  0  0
 31 32  1  0  0  0  0
 32 33  2  0  0  0  0
 32 34  1  0  0  0  0
 32 35  1  0  0  0  0
 34 79  1  0  0  0  0
 35 80  1  0  0  0  0
 36 37  1  0  0  0  0
 36 38  1  0  0  0  0
 36 81  1  1  0  0  0
 37 82  1  0  0  0  0
 38 39  2  0  0  0  0
 38 40  1  0  0  0  0
 40 41  1  0  0  0  0
 40 83  1  0  0  0  0
 41 42  1  0  0  0  0
 41 84  1  0  0  0  0
 41 85  1  0  0  0  0
 42 43  1  0  0  0  0
 42 86  1  0  0  0  0
 42 87  1  0  0  0  0
 43 44  2  0  0  0  0
 43 45  1  0  0  0  0
 45 46  1  0  0  0  0
 45 88  1  0  0  0  0
 46 47  1  0  0  0  0
 46 89  1  0  0  0  0
 46 90  1  0  0  0  0
 47 48  1  0  0  0  0
 47 91  1  0  0  0  0
 47 92  1  0  0  0  0
 48 49  1  0  0  0  0
 49 50  2  0  0  0  0
 49 51  1  0  0  0  0
 51 52  1  0  0  0  0
 51 57  2  0  0  0  0
 52 53  2  0  0  0  0
 52 93  1  0  0  0  0
 53 54  1  0  0  0  0
 53 94  1  0  0  0  0
 54 55  2  0  0  0  0
 54 95  1  0  0  0  0
 55 56  1  0  0  0  0
 55 57  1  0  0  0  0
 56 96  1  0  0  0  0
 57 97  1  0  0  0  0
M  END
$$$$
