CHEBI:15966
 OpenBabel04242413343D

 19 18  0  0  1  0  0  0  0  0999 V2000
    3.6304    1.8647    0.7777 N   0  0  0  0  0  0  0  0  0  0  0  0
    2.7883    0.8987    0.0360 C   0  0  2  0  0  0  0  0  0  0  0  0
    1.5353    0.5622    0.8574 C   0  0  0  0  0  0  0  0  0  0  0  0
    0.6644    1.7824    1.1692 C   0  0  0  0  0  0  0  0  0  0  0  0
    0.1620    2.4330   -0.0955 C   0  0  0  0  0  0  0  0  0  0  0  0
    0.0045    1.8387   -1.1537 O   0  0  0  0  0  0  0  0  0  0  0  0
   -0.1319    3.7411    0.0552 O   0  0  0  0  0  0  0  0  0  0  0  0
    3.5810   -0.3853   -0.2587 C   0  0  0  0  0  0  0  0  0  0  0  0
    4.6439   -0.6711    0.2770 O   0  0  0  0  0  0  0  0  0  0  0  0
    2.9935   -1.1841   -1.1789 O   0  0  0  0  0  0  0  0  0  0  0  0
    4.4404    2.0872    0.1912 H   0  0  0  0  0  0  0  0  0  0  0  0
    4.0548    1.3598    1.5643 H   0  0  0  0  0  0  0  0  0  0  0  0
    2.5374    1.3548   -0.9271 H   0  0  0  0  0  0  0  0  0  0  0  0
    0.9339   -0.1820    0.3192 H   0  0  0  0  0  0  0  0  0  0  0  0
    1.8255    0.0833    1.8020 H   0  0  0  0  0  0  0  0  0  0  0  0
    1.2323    2.5061    1.7625 H   0  0  0  0  0  0  0  0  0  0  0  0
   -0.2085    1.4750    1.7552 H   0  0  0  0  0  0  0  0  0  0  0  0
    0.0710    4.0920    0.9440 H   0  0  0  0  0  0  0  0  0  0  0  0
    2.1649   -0.8223   -1.5537 H   0  0  0  0  0  0  0  0  0  0  0  0
  1 11  1  0  0  0  0
  1 12  1  0  0  0  0
  2  8  1  0  0  0  0
  2  3  1  0  0  0  0
  2  1  1  0  0  0  0
  2 13  1  6  0  0  0
  3  4  1  0  0  0  0
  3 14  1  0  0  0  0
  3 15  1  0  0  0  0
  4  5  1  0  0  0  0
  4 16  1  0  0  0  0
  4 17  1  0  0  0  0
  5  6  2  0  0  0  0
  5  7  1  0  0  0  0
  7 18  1  0  0  0  0
  8  9  2  0  0  0  0
  8 10  1  0  0  0  0
 10 19  1  0  0  0  0
M  END
$$$$
