CHEBI:16714
 OpenBabel04242415073D

 43 47  0  0  1  0  0  0  0  0999 V2000
    0.9631   -0.1440   -0.3557 C   0  0  0  0  0  0  0  0  0  0  0  0
    2.2692   -0.2710    0.1918 O   0  0  0  0  0  0  0  0  0  0  0  0
    2.9588   -1.4056   -0.1214 C   0  0  0  0  0  0  0  0  0  0  0  0
    4.1238   -1.6133    0.6359 C   0  0  0  0  0  0  0  0  0  0  0  0
    4.9763   -2.7096    0.3981 C   0  0  0  0  0  0  0  0  0  0  0  0
    4.6559   -3.6419   -0.5863 C   0  0  0  0  0  0  0  0  0  0  0  0
    3.4719   -3.4470   -1.2781 C   0  0  0  0  0  0  0  0  0  0  0  0
    2.6720   -2.3325   -1.1066 C   0  0  0  0  0  0  0  0  0  0  0  0
    1.6827   -2.2720   -2.0565 O   0  0  0  0  0  0  0  0  0  0  0  0
    2.0534   -3.2830   -3.0632 C   0  0  1  0  0  0  0  0  0  0  0  0
    2.6990   -2.5990   -4.3039 C   0  0  1  0  0  0  0  0  0  0  0  0
    2.4097   -1.2036   -4.3497 O   0  0  0  0  0  0  0  0  0  0  0  0
    4.1823   -2.7732   -4.4587 C   0  0  0  0  0  0  0  0  0  0  0  0
    4.8457   -3.8261   -3.9556 C   0  0  0  0  0  0  0  0  0  0  0  0
    4.1272   -4.8957   -3.1661 C   0  0  1  0  0  0  0  0  0  0  0  0
    5.0155   -5.6793   -2.1457 C   0  0  1  0  0  0  0  0  0  0  0  0
    5.5804   -4.7526   -1.0128 C   0  0  0  0  0  0  0  0  0  0  0  0
    4.2128   -6.8438   -1.6837 N   0  0  0  0  0  0  0  0  0  0  0  0
    4.9962   -7.8206   -0.9324 C   0  0  0  0  0  0  0  0  0  0  0  0
    2.9986   -6.4623   -0.9534 C   0  0  0  0  0  0  0  0  0  0  0  0
    2.1283   -5.4841   -1.7559 C   0  0  0  0  0  0  0  0  0  0  0  0
    2.9447   -4.3275   -2.3663 C   0  0  1  0  0  0  0  0  0  0  0  0
    0.4836    0.7126    0.1284 H   0  0  0  0  0  0  0  0  0  0  0  0
    0.3485   -1.0257   -0.1449 H   0  0  0  0  0  0  0  0  0  0  0  0
    1.0083    0.0700   -1.4278 H   0  0  0  0  0  0  0  0  0  0  0  0
    4.3913   -0.8915    1.4051 H   0  0  0  0  0  0  0  0  0  0  0  0
    5.8953   -2.8038    0.9715 H   0  0  0  0  0  0  0  0  0  0  0  0
    1.1076   -3.7336   -3.3901 H   0  0  0  0  0  0  0  0  0  0  0  0
    2.2477   -3.0349   -5.2041 H   0  0  0  0  0  0  0  0  0  0  0  0
    2.3219   -0.9178   -3.4206 H   0  0  0  0  0  0  0  0  0  0  0  0
    4.7100   -2.0372   -5.0602 H   0  0  0  0  0  0  0  0  0  0  0  0
    5.9085   -3.9410   -4.1515 H   0  0  0  0  0  0  0  0  0  0  0  0
    3.7556   -5.6129   -3.9140 H   0  0  0  0  0  0  0  0  0  0  0  0
    5.8762   -6.0847   -2.6956 H   0  0  0  0  0  0  0  0  0  0  0  0
    6.4932   -4.2804   -1.4005 H   0  0  0  0  0  0  0  0  0  0  0  0
    5.8829   -5.3344   -0.1364 H   0  0  0  0  0  0  0  0  0  0  0  0
    5.8893   -8.1175   -1.4930 H   0  0  0  0  0  0  0  0  0  0  0  0
    4.4108   -8.7338   -0.7765 H   0  0  0  0  0  0  0  0  0  0  0  0
    5.3091   -7.4523    0.0496 H   0  0  0  0  0  0  0  0  0  0  0  0
    3.2444   -6.0318    0.0251 H   0  0  0  0  0  0  0  0  0  0  0  0
    2.3956   -7.3567   -0.7520 H   0  0  0  0  0  0  0  0  0  0  0  0
    1.3268   -5.1089   -1.1065 H   0  0  0  0  0  0  0  0  0  0  0  0
    1.6376   -6.0364   -2.5688 H   0  0  0  0  0  0  0  0  0  0  0  0
  1  2  1  0  0  0  0
  1 23  1  0  0  0  0
  1 24  1  0  0  0  0
  1 25  1  0  0  0  0
  2  3  1  0  0  0  0
  3  4  1  0  0  0  0
  3  8  2  0  0  0  0
  4  5  2  0  0  0  0
  4 26  1  0  0  0  0
  5  6  1  0  0  0  0
  5 27  1  0  0  0  0
  6  7  2  0  0  0  0
  6 17  1  0  0  0  0
  7  8  1  0  0  0  0
  8  9  1  0  0  0  0
  9 10  1  0  0  0  0
 10 11  1  0  0  0  0
 10 22  1  0  0  0  0
 10 28  1  6  0  0  0
 11 12  1  0  0  0  0
 11 13  1  0  0  0  0
 11 29  1  6  0  0  0
 12 30  1  0  0  0  0
 13 14  2  0  0  0  0
 13 31  1  0  0  0  0
 14 15  1  0  0  0  0
 14 32  1  0  0  0  0
 15 16  1  0  0  0  0
 15 22  1  0  0  0  0
 15 33  1  6  0  0  0
 16 17  1  0  0  0  0
 16 18  1  0  0  0  0
 16 34  1  6  0  0  0
 17 35  1  0  0  0  0
 17 36  1  0  0  0  0
 18 19  1  0  0  0  0
 18 20  1  0  0  0  0
 19 37  1  0  0  0  0
 19 38  1  0  0  0  0
 19 39  1  0  0  0  0
 20 21  1  0  0  0  0
 20 40  1  0  0  0  0
 20 41  1  0  0  0  0
 21 22  1  0  0  0  0
 21 42  1  0  0  0  0
 21 43  1  0  0  0  0
 22  7  1  1  0  0  0
M  END
$$$$
