CHEBI:17630
 OpenBabel04242416593D

 69 71  0  0  1  0  0  0  0  0999 V2000
   -6.0269    2.6559   -4.8371 N   0  0  0  0  0  0  0  0  0  0  0  0
   -6.0539    4.0753   -5.2234 C   0  0  0  0  0  0  0  0  0  0  0  0
   -4.9215    4.4425   -6.2042 C   0  0  1  0  0  0  0  0  0  0  0  0
   -3.6873    4.0149   -5.5984 O   0  0  0  0  0  0  0  0  0  0  0  0
   -2.5377    4.2991   -6.3811 C   0  0  2  0  0  0  0  0  0  0  0  0
   -2.3019    5.7045   -6.5341 O   0  0  0  0  0  0  0  0  0  0  0  0
   -1.9858    6.4194   -5.3060 C   0  0  1  0  0  0  0  0  0  0  0  0
   -0.7074    5.8397   -4.6757 C   0  0  2  0  0  0  0  0  0  0  0  0
   -1.1424    4.7407   -3.8403 O   0  0  0  0  0  0  0  0  0  0  0  0
    0.1894    6.7293   -3.7924 C   0  0  1  0  0  0  0  0  0  0  0  0
    1.5730    6.3020   -3.9096 O   0  0  0  0  0  0  0  0  0  0  0  0
    1.9325    5.0253   -3.3394 C   0  0  1  0  0  0  0  0  0  0  0  0
    1.2730    3.9807   -4.0575 O   0  0  0  0  0  0  0  0  0  0  0  0
    1.6932    2.6352   -3.7737 C   0  0  2  0  0  0  0  0  0  0  0  0
    1.0945    2.1096   -2.4569 C   0  0  0  0  0  0  0  0  0  0  0  0
    1.5126    2.8480   -1.3136 O   0  0  0  0  0  0  0  0  0  0  0  0
    3.2098    2.4577   -3.9374 C   0  0  1  0  0  0  0  0  0  0  0  0
    3.5044    2.5055   -5.3497 O   0  0  0  0  0  0  0  0  0  0  0  0
    4.0424    3.5370   -3.2105 C   0  0  2  0  0  0  0  0  0  0  0  0
    4.1841    3.2628   -1.7739 N   0  0  0  0  0  0  0  0  0  0  0  0
    3.4648    4.9314   -3.5279 C   0  0  1  0  0  0  0  0  0  0  0  0
    3.7706    5.2337   -4.9145 O   0  0  0  0  0  0  0  0  0  0  0  0
    0.1698    8.2166   -4.2257 C   0  0  2  0  0  0  0  0  0  0  0  0
    0.7820    9.0781   -3.1970 N   0  0  0  0  0  0  0  0  0  0  0  0
   -1.2393    8.7187   -4.5406 C   0  0  0  0  0  0  0  0  0  0  0  0
   -1.8361    7.9077   -5.6900 C   0  0  2  0  0  0  0  0  0  0  0  0
   -3.1264    8.4902   -6.0960 N   0  0  0  0  0  0  0  0  0  0  0  0
   -2.6298    3.6643   -7.7803 C   0  0  2  0  0  0  0  0  0  0  0  0
   -1.5085    4.0321   -8.6035 O   0  0  0  0  0  0  0  0  0  0  0  0
   -3.9110    4.1052   -8.4763 C   0  0  1  0  0  0  0  0  0  0  0  0
   -4.0567    3.4037   -9.7252 O   0  0  0  0  0  0  0  0  0  0  0  0
   -5.1249    3.8165   -7.5923 C   0  0  2  0  0  0  0  0  0  0  0  0
   -6.2898    4.3471   -8.2353 O   0  0  0  0  0  0  0  0  0  0  0  0
   -6.6437    2.5180   -4.0388 H   0  0  0  0  0  0  0  0  0  0  0  0
   -5.0801    2.4502   -4.5094 H   0  0  0  0  0  0  0  0  0  0  0  0
   -5.9203    4.6627   -4.3070 H   0  0  0  0  0  0  0  0  0  0  0  0
   -7.0336    4.3265   -5.6408 H   0  0  0  0  0  0  0  0  0  0  0  0
   -4.9128    5.5370   -6.2906 H   0  0  0  0  0  0  0  0  0  0  0  0
   -1.6711    3.8294   -5.9107 H   0  0  0  0  0  0  0  0  0  0  0  0
   -2.8352    6.3027   -4.6191 H   0  0  0  0  0  0  0  0  0  0  0  0
   -0.1000    5.4161   -5.4861 H   0  0  0  0  0  0  0  0  0  0  0  0
   -0.3693    4.1491   -3.7981 H   0  0  0  0  0  0  0  0  0  0  0  0
   -0.1051    6.6453   -2.7377 H   0  0  0  0  0  0  0  0  0  0  0  0
    1.6517    5.0206   -2.2832 H   0  0  0  0  0  0  0  0  0  0  0  0
    1.2164    2.0403   -4.5646 H   0  0  0  0  0  0  0  0  0  0  0  0
    0.0024    2.1847   -2.5014 H   0  0  0  0  0  0  0  0  0  0  0  0
    1.3650    1.0592   -2.3090 H   0  0  0  0  0  0  0  0  0  0  0  0
    1.0451    2.4559   -0.5503 H   0  0  0  0  0  0  0  0  0  0  0  0
    3.5070    1.4544   -3.6123 H   0  0  0  0  0  0  0  0  0  0  0  0
    3.5319    3.4540   -5.6027 H   0  0  0  0  0  0  0  0  0  0  0  0
    5.0549    3.4993   -3.6340 H   0  0  0  0  0  0  0  0  0  0  0  0
    3.2571    3.2230   -1.3324 H   0  0  0  0  0  0  0  0  0  0  0  0
    4.6939    4.0188   -1.3197 H   0  0  0  0  0  0  0  0  0  0  0  0
    3.9660    5.7082   -2.9391 H   0  0  0  0  0  0  0  0  0  0  0  0
    3.2198    6.0210   -5.1131 H   0  0  0  0  0  0  0  0  0  0  0  0
    0.7936    8.3235   -5.1230 H   0  0  0  0  0  0  0  0  0  0  0  0
    0.2090    9.0888   -2.3540 H   0  0  0  0  0  0  0  0  0  0  0  0
    0.8183   10.0419   -3.5289 H   0  0  0  0  0  0  0  0  0  0  0  0
   -1.1943    9.7792   -4.8238 H   0  0  0  0  0  0  0  0  0  0  0  0
   -1.8802    8.6535   -3.6509 H   0  0  0  0  0  0  0  0  0  0  0  0
   -1.1780    7.9799   -6.5658 H   0  0  0  0  0  0  0  0  0  0  0  0
   -3.0171    9.4780   -6.3201 H   0  0  0  0  0  0  0  0  0  0  0  0
   -3.8021    8.4335   -5.3354 H   0  0  0  0  0  0  0  0  0  0  0  0
   -2.6220    2.5708   -7.6970 H   0  0  0  0  0  0  0  0  0  0  0  0
   -1.3543    4.9822   -8.4254 H   0  0  0  0  0  0  0  0  0  0  0  0
   -3.8679    5.1685   -8.7418 H   0  0  0  0  0  0  0  0  0  0  0  0
   -3.1628    3.3999  -10.1240 H   0  0  0  0  0  0  0  0  0  0  0  0
   -5.2607    2.7308   -7.5148 H   0  0  0  0  0  0  0  0  0  0  0  0
   -6.2473    3.9999   -9.1492 H   0  0  0  0  0  0  0  0  0  0  0  0
  1  2  1  0  0  0  0
  1 34  1  0  0  0  0
  1 35  1  0  0  0  0
  2 36  1  0  0  0  0
  2 37  1  0  0  0  0
  3  4  1  0  0  0  0
  3 32  1  0  0  0  0
  3  2  1  0  0  0  0
  3 38  1  6  0  0  0
  4  5  1  0  0  0  0
  5  6  1  0  0  0  0
  5 28  1  0  0  0  0
  5 39  1  1  0  0  0
  7  8  1  0  0  0  0
  7 26  1  0  0  0  0
  7  6  1  0  0  0  0
  7 40  1  1  0  0  0
  8 10  1  0  0  0  0
  8  9  1  0  0  0  0
  8 41  1  6  0  0  0
  9 42  1  0  0  0  0
 10 11  1  0  0  0  0
 10 23  1  0  0  0  0
 10 43  1  1  0  0  0
 12 13  1  0  0  0  0
 12 21  1  0  0  0  0
 12 11  1  0  0  0  0
 12 44  1  1  0  0  0
 13 14  1  0  0  0  0
 14 17  1  0  0  0  0
 14 15  1  0  0  0  0
 14 45  1  6  0  0  0
 15 16  1  0  0  0  0
 15 46  1  0  0  0  0
 15 47  1  0  0  0  0
 16 48  1  0  0  0  0
 17 18  1  0  0  0  0
 17 19  1  0  0  0  0
 17 49  1  1  0  0  0
 18 50  1  0  0  0  0
 19 21  1  0  0  0  0
 19 20  1  0  0  0  0
 19 51  1  6  0  0  0
 20 52  1  0  0  0  0
 20 53  1  0  0  0  0
 21 22  1  0  0  0  0
 21 54  1  1  0  0  0
 22 55  1  0  0  0  0
 23 25  1  0  0  0  0
 23 24  1  0  0  0  0
 23 56  1  6  0  0  0
 24 57  1  0  0  0  0
 24 58  1  0  0  0  0
 25 26  1  0  0  0  0
 25 59  1  0  0  0  0
 25 60  1  0  0  0  0
 26 27  1  0  0  0  0
 26 61  1  6  0  0  0
 27 62  1  0  0  0  0
 27 63  1  0  0  0  0
 28 29  1  0  0  0  0
 28 30  1  0  0  0  0
 28 64  1  1  0  0  0
 29 65  1  0  0  0  0
 30 31  1  0  0  0  0
 30 32  1  0  0  0  0
 30 66  1  6  0  0  0
 31 67  1  0  0  0  0
 32 33  1  0  0  0  0
 32 68  1  1  0  0  0
 33 69  1  0  0  0  0
M  END
$$$$
