CHEBI:16017
 OpenBabel04242413373D

 17 17  0  0  0  0  0  0  0  0999 V2000
    5.0233   -0.2704   -4.5051 N   0  0  0  0  0  0  0  0  0  0  0  0
    4.9906    0.1662   -3.4317 C   0  0  0  0  0  0  0  0  0  0  0  0
    4.9315    0.7670   -1.8543 S   0  0  0  0  0  0  0  0  0  0  0  0
    5.6724   -0.6557   -1.0052 C   0  0  0  0  0  0  0  0  0  0  0  0
    7.1588   -0.7668   -1.2341 C   0  0  0  0  0  0  0  0  0  0  0  0
    8.0556    0.0121   -0.4874 C   0  0  0  0  0  0  0  0  0  0  0  0
    9.4291   -0.0688   -0.7221 C   0  0  0  0  0  0  0  0  0  0  0  0
    9.9203   -0.9241   -1.7063 C   0  0  0  0  0  0  0  0  0  0  0  0
    9.0399   -1.7023   -2.4546 C   0  0  0  0  0  0  0  0  0  0  0  0
    7.6664   -1.6264   -2.2197 C   0  0  0  0  0  0  0  0  0  0  0  0
    5.1631   -1.5805   -1.3017 H   0  0  0  0  0  0  0  0  0  0  0  0
    5.4848   -0.5426    0.0692 H   0  0  0  0  0  0  0  0  0  0  0  0
    7.6898    0.6929    0.2786 H   0  0  0  0  0  0  0  0  0  0  0  0
   10.1166    0.5406   -0.1411 H   0  0  0  0  0  0  0  0  0  0  0  0
   10.9893   -0.9809   -1.8941 H   0  0  0  0  0  0  0  0  0  0  0  0
    9.4218   -2.3644   -3.2277 H   0  0  0  0  0  0  0  0  0  0  0  0
    6.9969   -2.2373   -2.8228 H   0  0  0  0  0  0  0  0  0  0  0  0
  1  2  3  0  0  0  0
  2  3  1  0  0  0  0
  3  4  1  0  0  0  0
  4  5  1  0  0  0  0
  4 11  1  0  0  0  0
  4 12  1  0  0  0  0
  5  6  1  0  0  0  0
  5 10  2  0  0  0  0
  6  7  2  0  0  0  0
  6 13  1  0  0  0  0
  7  8  1  0  0  0  0
  7 14  1  0  0  0  0
  8  9  2  0  0  0  0
  8 15  1  0  0  0  0
  9 10  1  0  0  0  0
  9 16  1  0  0  0  0
 10 17  1  0  0  0  0
M  END
$$$$
