CHEBI:4779
 OpenBabel04242411003D

 48 50  0  0  0  0  0  0  0  0999 V2000
   10.6764    0.9607    2.0797 C   0  0  0  0  0  0  0  0  0  0  0  0
    9.9035    0.5664    0.8330 C   0  0  0  0  0  0  0  0  0  0  0  0
    9.4011   -0.7647    0.9123 O   0  0  0  0  0  0  0  0  0  0  0  0
    8.2768   -0.9440    1.7754 C   0  0  0  0  0  0  0  0  0  0  0  0
    6.9410   -0.5686    1.1185 C   0  0  0  0  0  0  0  0  0  0  0  0
    6.4712    0.8059    1.1318 N   0  0  0  0  0  0  0  0  0  0  0  0
    5.7955    1.4777    0.1040 C   0  0  0  0  0  0  0  0  0  0  0  0
    5.2351    0.9753   -1.0511 N   0  0  0  0  0  0  0  0  0  0  0  0
    5.2240    1.9422   -2.1705 C   0  0  0  0  0  0  0  0  0  0  0  0
    4.1241    1.7451   -3.2069 C   0  0  0  0  0  0  0  0  0  0  0  0
    4.3782    0.5350   -4.0989 C   0  0  0  0  0  0  0  0  0  0  0  0
    3.8866   -0.7496   -3.5960 N   0  0  0  0  0  0  0  0  0  0  0  0
    2.5642   -1.0608   -4.1439 C   0  0  0  0  0  0  0  0  0  0  0  0
    3.8557   -0.8564   -2.1274 C   0  0  0  0  0  0  0  0  0  0  0  0
    5.1431   -0.4512   -1.3779 C   0  0  0  0  0  0  0  0  0  0  0  0
    5.7618    2.7682    0.3882 N   0  0  0  0  0  0  0  0  0  0  0  0
    6.2441    2.9240    1.6460 C   0  0  0  0  0  0  0  0  0  0  0  0
    6.3568    4.1035    2.3984 C   0  0  0  0  0  0  0  0  0  0  0  0
    6.8622    4.0313    3.6968 C   0  0  0  0  0  0  0  0  0  0  0  0
    7.2159    2.8004    4.2429 C   0  0  0  0  0  0  0  0  0  0  0  0
    7.0896    1.6126    3.5073 C   0  0  0  0  0  0  0  0  0  0  0  0
    6.6346    1.7034    2.1824 C   0  0  0  0  0  0  0  0  0  0  0  0
   11.1384    1.9434    1.9491 H   0  0  0  0  0  0  0  0  0  0  0  0
   11.4593    0.2267    2.2966 H   0  0  0  0  0  0  0  0  0  0  0  0
   10.0309    1.0065    2.9606 H   0  0  0  0  0  0  0  0  0  0  0  0
   10.5896    0.5869   -0.0202 H   0  0  0  0  0  0  0  0  0  0  0  0
    9.1034    1.2767    0.6135 H   0  0  0  0  0  0  0  0  0  0  0  0
    8.4611   -0.5044    2.7513 H   0  0  0  0  0  0  0  0  0  0  0  0
    8.2382   -2.0263    1.9526 H   0  0  0  0  0  0  0  0  0  0  0  0
    6.1358   -1.1515    1.5796 H   0  0  0  0  0  0  0  0  0  0  0  0
    7.0604   -0.8581    0.0746 H   0  0  0  0  0  0  0  0  0  0  0  0
    6.2087    1.9357   -2.6550 H   0  0  0  0  0  0  0  0  0  0  0  0
    5.0758    2.9641   -1.7975 H   0  0  0  0  0  0  0  0  0  0  0  0
    4.1193    2.6336   -3.8523 H   0  0  0  0  0  0  0  0  0  0  0  0
    3.1317    1.7140   -2.7418 H   0  0  0  0  0  0  0  0  0  0  0  0
    5.4566    0.4350   -4.2766 H   0  0  0  0  0  0  0  0  0  0  0  0
    3.9575    0.7362   -5.0933 H   0  0  0  0  0  0  0  0  0  0  0  0
    2.5945   -1.0859   -5.2392 H   0  0  0  0  0  0  0  0  0  0  0  0
    1.8078   -0.3304   -3.8354 H   0  0  0  0  0  0  0  0  0  0  0  0
    2.2374   -2.0559   -3.8221 H   0  0  0  0  0  0  0  0  0  0  0  0
    3.6880   -1.9189   -1.9026 H   0  0  0  0  0  0  0  0  0  0  0  0
    3.0009   -0.3157   -1.7008 H   0  0  0  0  0  0  0  0  0  0  0  0
    6.0330   -0.7768   -1.9299 H   0  0  0  0  0  0  0  0  0  0  0  0
    5.0825   -1.0339   -0.4556 H   0  0  0  0  0  0  0  0  0  0  0  0
    6.0472    5.0489    1.9665 H   0  0  0  0  0  0  0  0  0  0  0  0
    6.9630    4.9399    4.2851 H   0  0  0  0  0  0  0  0  0  0  0  0
    7.5953    2.7600    5.2620 H   0  0  0  0  0  0  0  0  0  0  0  0
    7.3442    0.6714    3.9779 H   0  0  0  0  0  0  0  0  0  0  0  0
  1  2  1  0  0  0  0
  1 23  1  0  0  0  0
  1 24  1  0  0  0  0
  1 25  1  0  0  0  0
  2  3  1  0  0  0  0
  2 26  1  0  0  0  0
  2 27  1  0  0  0  0
  3  4  1  0  0  0  0
  4  5  1  0  0  0  0
  4 28  1  0  0  0  0
  4 29  1  0  0  0  0
  5  6  1  0  0  0  0
  5 30  1  0  0  0  0
  5 31  1  0  0  0  0
  6  7  1  0  0  0  0
  6 22  1  0  0  0  0
  7  8  1  0  0  0  0
  7 16  2  0  0  0  0
  8  9  1  0  0  0  0
  8 15  1  0  0  0  0
  9 10  1  0  0  0  0
  9 32  1  0  0  0  0
  9 33  1  0  0  0  0
 10 11  1  0  0  0  0
 10 34  1  0  0  0  0
 10 35  1  0  0  0  0
 11 12  1  0  0  0  0
 11 36  1  0  0  0  0
 11 37  1  0  0  0  0
 12 13  1  0  0  0  0
 12 14  1  0  0  0  0
 13 38  1  0  0  0  0
 13 39  1  0  0  0  0
 13 40  1  0  0  0  0
 14 15  1  0  0  0  0
 14 41  1  0  0  0  0
 14 42  1  0  0  0  0
 15 43  1  0  0  0  0
 15 44  1  0  0  0  0
 16 17  1  0  0  0  0
 17 18  1  0  0  0  0
 17 22  2  0  0  0  0
 18 19  2  0  0  0  0
 18 45  1  0  0  0  0
 19 20  1  0  0  0  0
 19 46  1  0  0  0  0
 20 21  2  0  0  0  0
 20 47  1  0  0  0  0
 21 22  1  0  0  0  0
 21 48  1  0  0  0  0
M  END
$$$$
