CHEBI:21374
 OpenBabel04252409383D

 18 18  0  0  1  0  0  0  0  0999 V2000
    0.8609    0.1070    0.2688 N   0  0  0  0  0  0  0  0  0  0  0  0
    2.1822   -0.2328    0.1766 C   0  0  0  0  0  0  0  0  0  0  0  0
    2.5553   -1.1778   -0.5098 O   0  0  0  0  0  0  0  0  0  0  0  0
    3.1214    0.6026    1.0545 C   0  0  2  0  0  0  0  0  0  0  0  0
    3.1799    0.0739    2.4863 C   0  0  0  0  0  0  0  0  0  0  0  0
    2.7511    1.2433    3.3595 C   0  0  0  0  0  0  0  0  0  0  0  0
    3.0191    2.4553    2.4929 C   0  0  0  0  0  0  0  0  0  0  0  0
    2.6084    1.9962    1.1684 N   0  0  0  0  0  0  0  0  0  0  0  0
    0.2153   -0.3312   -0.3715 H   0  0  0  0  0  0  0  0  0  0  0  0
    0.6587    1.0354    0.6270 H   0  0  0  0  0  0  0  0  0  0  0  0
    4.1167    0.6121    0.5952 H   0  0  0  0  0  0  0  0  0  0  0  0
    4.2115   -0.2061    2.7314 H   0  0  0  0  0  0  0  0  0  0  0  0
    2.5455   -0.8010    2.6632 H   0  0  0  0  0  0  0  0  0  0  0  0
    3.2985    1.2752    4.3061 H   0  0  0  0  0  0  0  0  0  0  0  0
    1.6808    1.1651    3.5872 H   0  0  0  0  0  0  0  0  0  0  0  0
    4.0842    2.7146    2.4978 H   0  0  0  0  0  0  0  0  0  0  0  0
    2.4430    3.3273    2.8141 H   0  0  0  0  0  0  0  0  0  0  0  0
    3.0282    2.5736    0.4397 H   0  0  0  0  0  0  0  0  0  0  0  0
  1  2  1  0  0  0  0
  1  9  1  0  0  0  0
  1 10  1  0  0  0  0
  2  3  2  0  0  0  0
  2  4  1  0  0  0  0
  4  5  1  0  0  0  0
  4  8  1  0  0  0  0
  4 11  1  6  0  0  0
  5  6  1  0  0  0  0
  5 12  1  0  0  0  0
  5 13  1  0  0  0  0
  6  7  1  0  0  0  0
  6 14  1  0  0  0  0
  6 15  1  0  0  0  0
  7  8  1  0  0  0  0
  7 16  1  0  0  0  0
  7 17  1  0  0  0  0
  8 18  1  0  0  0  0
M  END
$$$$
