CHEBI:16146
 OpenBabel04242413543D

 12 11  0  0  0  0  0  0  0  0999 V2000
    2.9149    2.0766    2.3590 N   0  0  0  0  0  0  0  0  0  0  0  0
    3.0504    3.2478    1.7076 C   0  0  0  0  0  0  0  0  0  0  0  0
    2.6136    4.2981    2.1724 O   0  0  0  0  0  0  0  0  0  0  0  0
    3.7831    3.2491    0.4151 C   0  0  0  0  0  0  0  0  0  0  0  0
    4.1753    2.2626   -0.4054 C   0  0  0  0  0  0  0  0  0  0  0  0
    4.0222    0.7448   -0.3422 C   0  0  0  0  0  0  0  0  0  0  0  0
    4.4787    0.1455   -1.3555 O   0  0  0  0  0  0  0  0  0  0  0  0
    3.4766    0.2712    0.6910 O   0  5  0  0  0  0  0  0  0  0  0  0
    2.3105    2.0195    3.1587 H   0  0  0  0  0  0  0  0  0  0  0  0
    3.1272    1.1982    1.8608 H   0  0  0  0  0  0  0  0  0  0  0  0
    4.0040    4.2668    0.1017 H   0  0  0  0  0  0  0  0  0  0  0  0
    4.6975    2.5641   -1.3150 H   0  0  0  0  0  0  0  0  0  0  0  0
  1  2  1  0  0  0  0
  1  9  1  0  0  0  0
  1 10  1  0  0  0  0
  2  3  2  0  0  0  0
  2  4  1  0  0  0  0
  4  5  2  0  0  0  0
  4 11  1  0  0  0  0
  5  6  1  0  0  0  0
  5 12  1  0  0  0  0
  6  7  2  0  0  0  0
  6  8  1  0  0  0  0
M  CHG  1   8  -1
M  END
$$$$
