CHEBI:16764
 OpenBabel04242415113D

 37 38  0  0  1  0  0  0  0  0999 V2000
    8.3624   -1.6890   -1.2463 C   0  0  0  0  0  0  0  0  0  0  0  0
    7.3776   -1.0661   -0.3169 C   0  0  0  0  0  0  0  0  0  0  0  0
    6.9309    0.1882   -0.4201 C   0  0  0  0  0  0  0  0  0  0  0  0
    5.9893    0.6982    0.4460 N   0  0  0  0  0  0  0  0  0  0  0  0
    5.4782    2.0586    0.3212 C   0  0  1  0  0  0  0  0  0  0  0  0
    5.7670    2.9388    1.5384 C   0  0  0  0  0  0  0  0  0  0  0  0
    6.0014    4.2974    0.9263 C   0  0  2  0  0  0  0  0  0  0  0  0
    4.7472    4.9458    0.7031 O   0  0  0  0  0  0  0  0  0  0  0  0
    6.6750    3.9598   -0.3953 C   0  0  1  0  0  0  0  0  0  0  0  0
    8.1843    3.7399   -0.2474 C   0  0  0  0  0  0  0  0  0  0  0  0
    8.7757    3.6434   -1.5393 O   0  0  0  0  0  0  0  0  0  0  0  0
   10.3045    3.1854   -1.5799 P   0  0  0  0  0  0  0  0  0  0  0  0
   11.2351    3.8174   -0.6070 O   0  0  0  0  0  0  0  0  0  0  0  0
   10.2566    1.5918   -1.5832 O   0  0  0  0  0  0  0  0  0  0  0  0
   10.7383    3.4506   -3.0933 O   0  0  0  0  0  0  0  0  0  0  0  0
    6.0445    2.7317   -0.8287 O   0  0  0  0  0  0  0  0  0  0  0  0
    5.4139   -0.1040    1.4368 C   0  0  0  0  0  0  0  0  0  0  0  0
    4.5191    0.3301    2.1592 O   0  0  0  0  0  0  0  0  0  0  0  0
    5.8853   -1.3825    1.6003 N   0  0  0  0  0  0  0  0  0  0  0  0
    6.7945   -1.8494    0.8019 C   0  0  0  0  0  0  0  0  0  0  0  0
    7.2052   -3.1310    1.0561 N   0  0  0  0  0  0  0  0  0  0  0  0
    8.6284   -1.0140   -2.0668 H   0  0  0  0  0  0  0  0  0  0  0  0
    7.9485   -2.5990   -1.6929 H   0  0  0  0  0  0  0  0  0  0  0  0
    9.2843   -1.9466   -0.7157 H   0  0  0  0  0  0  0  0  0  0  0  0
    7.2912    0.8391   -1.2099 H   0  0  0  0  0  0  0  0  0  0  0  0
    4.3963    1.9989    0.1477 H   0  0  0  0  0  0  0  0  0  0  0  0
    6.6708    2.5973    2.0572 H   0  0  0  0  0  0  0  0  0  0  0  0
    4.9389    2.9258    2.2540 H   0  0  0  0  0  0  0  0  0  0  0  0
    6.5969    4.9550    1.5654 H   0  0  0  0  0  0  0  0  0  0  0  0
    4.3021    4.5191   -0.0519 H   0  0  0  0  0  0  0  0  0  0  0  0
    6.4747    4.7110   -1.1670 H   0  0  0  0  0  0  0  0  0  0  0  0
    8.4027    2.8207    0.3059 H   0  0  0  0  0  0  0  0  0  0  0  0
    8.6432    4.5882    0.2705 H   0  0  0  0  0  0  0  0  0  0  0  0
    9.9939    1.2815   -2.4684 H   0  0  0  0  0  0  0  0  0  0  0  0
   11.1297    4.3404   -3.1804 H   0  0  0  0  0  0  0  0  0  0  0  0
    6.8779   -3.4523    1.9629 H   0  0  0  0  0  0  0  0  0  0  0  0
    8.1848   -3.3335    0.9028 H   0  0  0  0  0  0  0  0  0  0  0  0
  1  2  1  0  0  0  0
  1 22  1  0  0  0  0
  1 23  1  0  0  0  0
  1 24  1  0  0  0  0
  2  3  2  0  0  0  0
  2 20  1  0  0  0  0
  3  4  1  0  0  0  0
  3 25  1  0  0  0  0
  4  5  1  0  0  0  0
  4 17  1  0  0  0  0
  5  6  1  0  0  0  0
  5 16  1  0  0  0  0
  5 26  1  6  0  0  0
  6  7  1  0  0  0  0
  6 27  1  0  0  0  0
  6 28  1  0  0  0  0
  7  8  1  0  0  0  0
  7  9  1  0  0  0  0
  7 29  1  1  0  0  0
  8 30  1  0  0  0  0
  9 10  1  0  0  0  0
  9 16  1  0  0  0  0
  9 31  1  6  0  0  0
 10 11  1  0  0  0  0
 10 32  1  0  0  0  0
 10 33  1  0  0  0  0
 11 12  1  0  0  0  0
 12 13  2  0  0  0  0
 12 14  1  0  0  0  0
 12 15  1  0  0  0  0
 14 34  1  0  0  0  0
 15 35  1  0  0  0  0
 17 18  2  0  0  0  0
 17 19  1  0  0  0  0
 19 20  2  0  0  0  0
 20 21  1  0  0  0  0
 21 36  1  0  0  0  0
 21 37  1  0  0  0  0
M  END
$$$$
