CHEBI:5864
 OpenBabel04242411053D

 29 29  0  0  0  0  0  0  0  0999 V2000
    1.6188   -0.0644    0.5600 O   0  0  0  0  0  0  0  0  0  0  0  0
    3.0050    0.1757    0.0482 P   0  0  0  0  0  0  0  0  0  0  0  0
    4.1683    0.0107    1.1851 N   0  0  0  0  0  0  0  0  0  0  0  0
    4.2028   -1.2193    1.9818 C   0  0  0  0  0  0  0  0  0  0  0  0
    4.5086   -2.4784    1.1695 C   0  0  0  0  0  0  0  0  0  0  0  0
    4.7375   -3.8756    2.2540 Cl  0  0  0  0  0  0  0  0  0  0  0  0
    3.3749   -0.8568   -1.1379 O   0  0  0  0  0  0  0  0  0  0  0  0
    2.5503   -0.7589   -2.2903 C   0  0  0  0  0  0  0  0  0  0  0  0
    2.6480    0.6341   -2.9092 C   0  0  0  0  0  0  0  0  0  0  0  0
    2.3650    1.7396   -1.8835 C   0  0  0  0  0  0  0  0  0  0  0  0
    3.2275    1.6407   -0.6923 N   0  0  0  0  0  0  0  0  0  0  0  0
    4.6192    2.0572   -0.9633 C   0  0  0  0  0  0  0  0  0  0  0  0
    4.7912    3.4888   -1.4827 C   0  0  0  0  0  0  0  0  0  0  0  0
    6.5227    3.9013   -1.6066 Cl  0  0  0  0  0  0  0  0  0  0  0  0
    4.0809    0.7822    1.8394 H   0  0  0  0  0  0  0  0  0  0  0  0
    3.2519   -1.3370    2.5148 H   0  0  0  0  0  0  0  0  0  0  0  0
    4.9792   -1.0904    2.7454 H   0  0  0  0  0  0  0  0  0  0  0  0
    5.4266   -2.3613    0.5857 H   0  0  0  0  0  0  0  0  0  0  0  0
    3.6874   -2.7336    0.4956 H   0  0  0  0  0  0  0  0  0  0  0  0
    1.5168   -0.9953   -2.0149 H   0  0  0  0  0  0  0  0  0  0  0  0
    2.8819   -1.5130   -3.0105 H   0  0  0  0  0  0  0  0  0  0  0  0
    1.9404    0.7135   -3.7420 H   0  0  0  0  0  0  0  0  0  0  0  0
    3.6513    0.7743   -3.3279 H   0  0  0  0  0  0  0  0  0  0  0  0
    1.3198    1.6566   -1.5582 H   0  0  0  0  0  0  0  0  0  0  0  0
    2.4286    2.7235   -2.3574 H   0  0  0  0  0  0  0  0  0  0  0  0
    5.1025    1.3498   -1.6478 H   0  0  0  0  0  0  0  0  0  0  0  0
    5.1780    1.9997   -0.0220 H   0  0  0  0  0  0  0  0  0  0  0  0
    4.3270    4.2131   -0.8068 H   0  0  0  0  0  0  0  0  0  0  0  0
    4.3721    3.6168   -2.4835 H   0  0  0  0  0  0  0  0  0  0  0  0
  1  2  2  0  0  0  0
  2  3  1  0  0  0  0
  2  7  1  0  0  0  0
  2 11  1  0  0  0  0
  3  4  1  0  0  0  0
  3 15  1  0  0  0  0
  4  5  1  0  0  0  0
  4 16  1  0  0  0  0
  4 17  1  0  0  0  0
  5  6  1  0  0  0  0
  5 18  1  0  0  0  0
  5 19  1  0  0  0  0
  7  8  1  0  0  0  0
  8  9  1  0  0  0  0
  8 20  1  0  0  0  0
  8 21  1  0  0  0  0
  9 10  1  0  0  0  0
  9 22  1  0  0  0  0
  9 23  1  0  0  0  0
 10 11  1  0  0  0  0
 10 24  1  0  0  0  0
 10 25  1  0  0  0  0
 11 12  1  0  0  0  0
 12 13  1  0  0  0  0
 12 26  1  0  0  0  0
 12 27  1  0  0  0  0
 13 14  1  0  0  0  0
 13 28  1  0  0  0  0
 13 29  1  0  0  0  0
M  END
$$$$
