CHEBI:15376
 OpenBabel04242411473D

 20 19  0  0  0  0  0  0  0  0999 V2000
   -0.1314    1.5365   -4.0067 O   0  0  0  0  0  0  0  0  0  0  0  0
    0.8895    2.2422   -3.6965 C   0  0  0  0  0  0  0  0  0  0  0  0
    1.0358    3.4796   -3.9085 O   0  5  0  0  0  0  0  0  0  0  0  0
    1.9309    1.4998   -2.8498 C   0  0  0  0  0  0  0  0  0  0  0  0
    3.3773    1.9789   -2.7858 C   0  0  0  0  0  0  0  0  0  0  0  0
    3.9496    2.2376   -1.5854 C   0  0  0  0  0  0  0  0  0  0  0  0
    5.3357    2.5702   -1.3149 C   0  0  0  0  0  0  0  0  0  0  0  0
    5.9406    2.7451   -0.1278 C   0  0  0  0  0  0  0  0  0  0  0  0
    7.3181    3.0689   -0.1386 O   0  0  0  0  0  0  0  0  0  0  0  0
    5.4032    2.6599    1.3682 C   0  0  0  0  0  0  0  0  0  0  0  0
    6.3468    2.9651    2.1884 O   0  0  0  0  0  0  0  0  0  0  0  0
    4.2267    2.3024    1.6091 O   0  5  0  0  0  0  0  0  0  0  0  0
    4.1290    1.9716   -4.1527 C   0  0  0  0  0  0  0  0  0  0  0  0
    3.9937    0.9059   -4.8353 O   0  0  0  0  0  0  0  0  0  0  0  0
    4.8704    2.9654   -4.4169 O   0  5  0  0  0  0  0  0  0  0  0  0
    1.9471    0.4552   -3.1908 H   0  0  0  0  0  0  0  0  0  0  0  0
    1.5067    1.4661   -1.8367 H   0  0  0  0  0  0  0  0  0  0  0  0
    3.3241    2.1625   -0.6982 H   0  0  0  0  0  0  0  0  0  0  0  0
    5.9540    2.6899   -2.2028 H   0  0  0  0  0  0  0  0  0  0  0  0
    7.4781    3.1653    0.8352 H   0  0  0  0  0  0  0  0  0  0  0  0
  1  2  2  0  0  0  0
  2  3  1  0  0  0  0
  2  4  1  0  0  0  0
  4  5  1  0  0  0  0
  4 16  1  0  0  0  0
  4 17  1  0  0  0  0
  5  6  2  0  0  0  0
  5 13  1  0  0  0  0
  6  7  1  0  0  0  0
  6 18  1  0  0  0  0
  7  8  2  0  0  0  0
  7 19  1  0  0  0  0
  8  9  1  0  0  0  0
  8 10  1  0  0  0  0
  9 20  1  0  0  0  0
 10 11  2  0  0  0  0
 10 12  1  0  0  0  0
 13 14  2  0  0  0  0
 13 15  1  0  0  0  0
M  CHG  3   3  -1  12  -1  15  -1
M  END
$$$$
