CHEBI:6909
 OpenBabel04242411083D

 21 21  0  0  0  0  0  0  0  0999 V2000
    1.8687    1.3452   -0.2123 C   0  0  0  0  0  0  0  0  0  0  0  0
    3.2831    0.9821    0.0715 C   0  0  0  0  0  0  0  0  0  0  0  0
    4.2594    1.8527    0.2501 N   0  0  0  0  0  0  0  0  0  0  0  0
    5.3887    1.1167    0.4807 C   0  0  0  0  0  0  0  0  0  0  0  0
    5.0981   -0.2228    0.4421 C   0  0  0  0  0  0  0  0  0  0  0  0
    5.9984   -1.3060    0.6407 N   0  3  0  0  0  0  0  0  0  0  0  0
    7.1983   -1.0200    0.7191 O   0  0  0  0  0  0  0  0  0  0  0  0
    5.5243   -2.4437    0.7337 O   0  5  0  0  0  0  0  0  0  0  0  0
    3.7533   -0.3191    0.1732 N   0  0  0  0  0  0  0  0  0  0  0  0
    2.9547   -1.5180   -0.0439 C   0  0  0  0  0  0  0  0  0  0  0  0
    2.4694   -2.1553    1.2560 C   0  0  0  0  0  0  0  0  0  0  0  0
    1.3723   -1.4147    1.7828 O   0  0  0  0  0  0  0  0  0  0  0  0
    1.7452    2.4329   -0.1883 H   0  0  0  0  0  0  0  0  0  0  0  0
    1.1932    0.9183    0.5331 H   0  0  0  0  0  0  0  0  0  0  0  0
    1.5710    0.9982   -1.2062 H   0  0  0  0  0  0  0  0  0  0  0  0
    6.3445    1.5923    0.6634 H   0  0  0  0  0  0  0  0  0  0  0  0
    3.5598   -2.2161   -0.6301 H   0  0  0  0  0  0  0  0  0  0  0  0
    2.1025   -1.2443   -0.6748 H   0  0  0  0  0  0  0  0  0  0  0  0
    3.2525   -2.1967    2.0184 H   0  0  0  0  0  0  0  0  0  0  0  0
    2.1146   -3.1714    1.0575 H   0  0  0  0  0  0  0  0  0  0  0  0
    1.1260   -1.8293    2.6293 H   0  0  0  0  0  0  0  0  0  0  0  0
  1  2  1  0  0  0  0
  1 13  1  0  0  0  0
  1 14  1  0  0  0  0
  1 15  1  0  0  0  0
  2  3  2  0  0  0  0
  2  9  1  0  0  0  0
  3  4  1  0  0  0  0
  4  5  2  0  0  0  0
  4 16  1  0  0  0  0
  5  6  1  0  0  0  0
  5  9  1  0  0  0  0
  6  7  2  0  0  0  0
  6  8  1  0  0  0  0
  9 10  1  0  0  0  0
 10 11  1  0  0  0  0
 10 17  1  0  0  0  0
 10 18  1  0  0  0  0
 11 12  1  0  0  0  0
 11 19  1  0  0  0  0
 11 20  1  0  0  0  0
 12 21  1  0  0  0  0
M  CHG  2   6   1   8  -1
M  END
$$$$
