CHEBI:16980
 OpenBabel04242415383D

 27 26  0  0  0  0  0  0  0  0999 V2000
   -0.0955    0.9505   -3.9742 C   0  0  0  0  0  0  0  0  0  0  0  0
    1.1495    0.5798   -3.2092 C   0  0  0  0  0  0  0  0  0  0  0  0
    1.0629   -0.7499   -2.5124 C   0  0  0  0  0  0  0  0  0  0  0  0
    2.2140    1.4064   -3.1956 C   0  0  0  0  0  0  0  0  0  0  0  0
    3.5393    1.2071   -2.5088 C   0  0  0  0  0  0  0  0  0  0  0  0
    4.7274    1.1902   -3.4856 C   0  0  0  0  0  0  0  0  0  0  0  0
    4.6866    0.0859   -4.5330 C   0  0  0  0  0  0  0  0  0  0  0  0
    4.7610   -1.3148   -3.9870 C   0  0  0  0  0  0  0  0  0  0  0  0
    4.6180    0.4175   -5.8368 C   0  0  0  0  0  0  0  0  0  0  0  0
    4.5666   -0.5203   -6.9795 C   0  0  0  0  0  0  0  0  0  0  0  0
    4.5487   -0.1090   -8.1336 O   0  0  0  0  0  0  0  0  0  0  0  0
   -0.2846    0.2171   -4.7651 H   0  0  0  0  0  0  0  0  0  0  0  0
   -0.0180    1.9361   -4.4449 H   0  0  0  0  0  0  0  0  0  0  0  0
   -0.9611    0.9709   -3.3038 H   0  0  0  0  0  0  0  0  0  0  0  0
    0.9520   -1.5522   -3.2495 H   0  0  0  0  0  0  0  0  0  0  0  0
    0.1928   -0.7705   -1.8475 H   0  0  0  0  0  0  0  0  0  0  0  0
    1.9362   -0.9834   -1.9010 H   0  0  0  0  0  0  0  0  0  0  0  0
    2.1394    2.3470   -3.7427 H   0  0  0  0  0  0  0  0  0  0  0  0
    3.5595    0.3051   -1.8921 H   0  0  0  0  0  0  0  0  0  0  0  0
    3.6806    2.0435   -1.8124 H   0  0  0  0  0  0  0  0  0  0  0  0
    5.6546    1.0826   -2.9078 H   0  0  0  0  0  0  0  0  0  0  0  0
    4.7963    2.1739   -3.9696 H   0  0  0  0  0  0  0  0  0  0  0  0
    3.8522   -1.5584   -3.4300 H   0  0  0  0  0  0  0  0  0  0  0  0
    5.6158   -1.4090   -3.3090 H   0  0  0  0  0  0  0  0  0  0  0  0
    4.8839   -2.0789   -4.7566 H   0  0  0  0  0  0  0  0  0  0  0  0
    4.5856    1.4592   -6.1457 H   0  0  0  0  0  0  0  0  0  0  0  0
    4.5426   -1.5946   -6.7500 H   0  0  0  0  0  0  0  0  0  0  0  0
  1  2  1  0  0  0  0
  1 12  1  0  0  0  0
  1 13  1  0  0  0  0
  1 14  1  0  0  0  0
  2  3  1  0  0  0  0
  2  4  2  0  0  0  0
  3 15  1  0  0  0  0
  3 16  1  0  0  0  0
  3 17  1  0  0  0  0
  4  5  1  0  0  0  0
  4 18  1  0  0  0  0
  5  6  1  0  0  0  0
  5 19  1  0  0  0  0
  5 20  1  0  0  0  0
  6  7  1  0  0  0  0
  6 21  1  0  0  0  0
  6 22  1  0  0  0  0
  7  8  1  0  0  0  0
  7  9  2  0  0  0  0
  8 23  1  0  0  0  0
  8 24  1  0  0  0  0
  8 25  1  0  0  0  0
  9 10  1  0  0  0  0
  9 26  1  0  0  0  0
 10 11  2  0  0  0  0
 10 27  1  0  0  0  0
M  END
$$$$
