CHEBI:17805
 OpenBabel04242417383D

 26 26  0  0  1  0  0  0  0  0999 V2000
    3.5138   -1.4626   -2.3661 O   0  0  0  0  0  0  0  0  0  0  0  0
    4.2962   -1.6704   -1.1190 P   0  0  0  0  0  0  0  0  0  0  0  0
    3.6752   -2.6955   -0.0621 O   0  0  0  0  0  0  0  0  0  0  0  0
    5.7296   -2.3411   -1.3283 O   0  0  0  0  0  0  0  0  0  0  0  0
    4.6050   -0.3886   -0.2072 O   0  0  0  0  0  0  0  0  0  0  0  0
    5.0495    0.7926   -0.8749 C   0  0  0  0  0  0  0  0  0  0  0  0
    6.5794    0.8128   -0.9421 C   0  0  1  0  0  0  0  0  0  0  0  0
    7.0594   -0.2439   -1.8139 O   0  0  0  0  0  0  0  0  0  0  0  0
    7.1614    2.1758   -1.3812 C   0  0  1  0  0  0  0  0  0  0  0  0
    8.5963    2.0408   -1.3642 O   0  0  0  0  0  0  0  0  0  0  0  0
    6.6794    2.6230   -2.7279 C   0  0  0  0  0  0  0  0  0  0  0  0
    7.3145    2.5701   -3.9529 C   0  0  0  0  0  0  0  0  0  0  0  0
    6.4125    3.0681   -4.8516 N   0  0  0  0  0  0  0  0  0  0  0  0
    5.2900    3.4142   -4.1561 C   0  0  0  0  0  0  0  0  0  0  0  0
    5.4301    3.1835   -2.8708 N   0  0  0  0  0  0  0  0  0  0  0  0
    4.3598   -2.9641    0.5734 H   0  0  0  0  0  0  0  0  0  0  0  0
    6.3071   -1.7089   -1.8197 H   0  0  0  0  0  0  0  0  0  0  0  0
    4.6816    1.6448   -0.2950 H   0  0  0  0  0  0  0  0  0  0  0  0
    4.5998    0.8325   -1.8712 H   0  0  0  0  0  0  0  0  0  0  0  0
    6.9843    0.5592    0.0457 H   0  0  0  0  0  0  0  0  0  0  0  0
    8.0031   -0.0100   -1.9593 H   0  0  0  0  0  0  0  0  0  0  0  0
    6.8988    2.9370   -0.6368 H   0  0  0  0  0  0  0  0  0  0  0  0
    8.9425    2.9211   -1.5988 H   0  0  0  0  0  0  0  0  0  0  0  0
    8.2894    2.2121   -4.2535 H   0  0  0  0  0  0  0  0  0  0  0  0
    6.5407    3.1542   -5.8510 H   0  0  0  0  0  0  0  0  0  0  0  0
    4.4108    3.8225   -4.6372 H   0  0  0  0  0  0  0  0  0  0  0  0
  1  2  2  0  0  0  0
  2  3  1  0  0  0  0
  2  4  1  0  0  0  0
  2  5  1  0  0  0  0
  3 16  1  0  0  0  0
  4 17  1  0  0  0  0
  5  6  1  0  0  0  0
  6  7  1  0  0  0  0
  6 18  1  0  0  0  0
  6 19  1  0  0  0  0
  7  8  1  0  0  0  0
  7  9  1  0  0  0  0
  7 20  1  1  0  0  0
  8 21  1  0  0  0  0
  9 10  1  0  0  0  0
  9 11  1  0  0  0  0
  9 22  1  1  0  0  0
 10 23  1  0  0  0  0
 11 12  2  0  0  0  0
 11 15  1  0  0  0  0
 12 13  1  0  0  0  0
 12 24  1  0  0  0  0
 13 14  1  0  0  0  0
 13 25  1  0  0  0  0
 14 15  2  0  0  0  0
 14 26  1  0  0  0  0
M  END
$$$$
