CHEBI:15405
 OpenBabel04242411493D

 29 30  0  0  1  0  0  0  0  0999 V2000
    1.0458    0.2075    0.0457 C   0  0  0  0  0  0  0  0  0  0  0  0
    2.5716   -0.0313    0.0641 C   0  0  0  0  0  0  0  0  0  0  0  0
    2.7889   -1.5503    0.0199 C   0  0  0  0  0  0  0  0  0  0  0  0
    3.2412    0.7423   -1.1216 C   0  0  2  0  0  0  0  0  0  0  0  0
    4.7184    0.3420   -1.2926 C   0  0  0  0  0  0  0  0  0  0  0  0
    5.3827    0.9281   -0.0393 C   0  0  0  0  0  0  0  0  0  0  0  0
    4.2204    1.6752    0.6552 C   0  0  1  0  0  0  0  0  0  0  0  0
    4.6925    2.7594    1.6031 C   0  0  0  0  0  0  0  0  0  0  0  0
    3.4142    2.1620   -0.5543 C   0  0  0  0  0  0  0  0  0  0  0  0
    3.2081    0.6850    1.2962 C   0  0  2  0  0  0  0  0  0  0  0  0
    3.7915   -0.1727    2.2581 O   0  0  0  0  0  0  0  0  0  0  0  0
    0.7864    1.2703    0.0720 H   0  0  0  0  0  0  0  0  0  0  0  0
    0.5675   -0.2647    0.9115 H   0  0  0  0  0  0  0  0  0  0  0  0
    0.5958   -0.2165   -0.8592 H   0  0  0  0  0  0  0  0  0  0  0  0
    3.8390   -1.8359    0.1255 H   0  0  0  0  0  0  0  0  0  0  0  0
    2.4273   -1.9664   -0.9271 H   0  0  0  0  0  0  0  0  0  0  0  0
    2.2435   -2.0467    0.8310 H   0  0  0  0  0  0  0  0  0  0  0  0
    2.6771    0.6929   -2.0564 H   0  0  0  0  0  0  0  0  0  0  0  0
    5.1363    0.8194   -2.1877 H   0  0  0  0  0  0  0  0  0  0  0  0
    4.8857   -0.7319   -1.3988 H   0  0  0  0  0  0  0  0  0  0  0  0
    6.1808    1.6190   -0.3374 H   0  0  0  0  0  0  0  0  0  0  0  0
    5.8396    0.1555    0.5845 H   0  0  0  0  0  0  0  0  0  0  0  0
    5.3309    3.4847    1.0873 H   0  0  0  0  0  0  0  0  0  0  0  0
    5.2680    2.3330    2.4313 H   0  0  0  0  0  0  0  0  0  0  0  0
    3.8456    3.3089    2.0278 H   0  0  0  0  0  0  0  0  0  0  0  0
    3.9833    2.8236   -1.2177 H   0  0  0  0  0  0  0  0  0  0  0  0
    2.4760    2.6563   -0.2861 H   0  0  0  0  0  0  0  0  0  0  0  0
    2.4406    1.2598    1.8303 H   0  0  0  0  0  0  0  0  0  0  0  0
    4.4784   -0.7106    1.8350 H   0  0  0  0  0  0  0  0  0  0  0  0
  1  2  1  0  0  0  0
  1 12  1  0  0  0  0
  1 13  1  0  0  0  0
  1 14  1  0  0  0  0
  2  4  1  0  0  0  0
  2 10  1  0  0  0  0
  2  3  1  0  0  0  0
  3 15  1  0  0  0  0
  3 16  1  0  0  0  0
  3 17  1  0  0  0  0
  4  5  1  0  0  0  0
  4  9  1  0  0  0  0
  4 18  1  6  0  0  0
  5  6  1  0  0  0  0
  5 19  1  0  0  0  0
  5 20  1  0  0  0  0
  6  7  1  0  0  0  0
  6 21  1  0  0  0  0
  6 22  1  0  0  0  0
  7  9  1  0  0  0  0
  7 10  1  0  0  0  0
  7  8  1  1  0  0  0
  8 23  1  0  0  0  0
  8 24  1  0  0  0  0
  8 25  1  0  0  0  0
  9 26  1  0  0  0  0
  9 27  1  0  0  0  0
 10 11  1  0  0  0  0
 10 28  1  1  0  0  0
 11 29  1  0  0  0  0
M  END
$$$$
