CHEBI:17489
 OpenBabel04242416403D

 34 37  0  0  1  0  0  0  0  0999 V2000
    6.1916   -9.0795   -0.2054 N   0  0  0  0  0  0  0  0  0  0  0  0
    5.7730   -7.7950   -0.5326 C   0  0  0  0  0  0  0  0  0  0  0  0
    4.6757   -7.6572   -1.3102 N   0  0  0  0  0  0  0  0  0  0  0  0
    4.2699   -6.4084   -1.6287 C   0  0  0  0  0  0  0  0  0  0  0  0
    4.8285   -5.2312   -1.2815 N   0  0  0  0  0  0  0  0  0  0  0  0
    5.9261   -5.4238   -0.5319 C   0  0  0  0  0  0  0  0  0  0  0  0
    6.4536   -6.6371   -0.1209 C   0  0  0  0  0  0  0  0  0  0  0  0
    7.5991   -6.4467    0.6230 N   0  0  0  0  0  0  0  0  0  0  0  0
    7.7673   -5.1417    0.6503 C   0  0  0  0  0  0  0  0  0  0  0  0
    6.7764   -4.4772   -0.0235 N   0  0  0  0  0  0  0  0  0  0  0  0
    6.6562   -3.0496   -0.2331 C   0  0  2  0  0  0  0  0  0  0  0  0
    7.5898   -2.6829   -1.2981 O   0  0  0  0  0  0  0  0  0  0  0  0
    8.1997   -1.4685   -0.8742 C   0  0  2  0  0  0  0  0  0  0  0  0
    9.5466   -1.1457   -1.5028 C   0  0  0  0  0  0  0  0  0  0  0  0
   10.0587    0.0463   -0.9090 O   0  0  0  0  0  0  0  0  0  0  0  0
   10.2267    0.0311    0.6927 P   0  0  0  0  0  0  0  0  0  0  0  0
   11.3706   -0.7758    1.2006 O   0  0  0  0  0  0  0  0  0  0  0  0
   10.2898    1.5782    1.0762 O   0  0  0  0  0  0  0  0  0  0  0  0
    8.7739   -0.4406    1.2248 O   0  0  0  0  0  0  0  0  0  0  0  0
    8.3668   -1.6491    0.6218 C   0  0  1  0  0  0  0  0  0  0  0  0
    6.9902   -2.1606    0.9966 C   0  0  1  0  0  0  0  0  0  0  0  0
    6.0748   -1.0613    1.0980 O   0  0  0  0  0  0  0  0  0  0  0  0
    5.8533   -9.7639   -0.8689 H   0  0  0  0  0  0  0  0  0  0  0  0
    7.1708   -9.1232    0.0549 H   0  0  0  0  0  0  0  0  0  0  0  0
    3.3795   -6.3467   -2.2482 H   0  0  0  0  0  0  0  0  0  0  0  0
    8.5920   -4.6447    1.1430 H   0  0  0  0  0  0  0  0  0  0  0  0
    5.6436   -2.8360   -0.5940 H   0  0  0  0  0  0  0  0  0  0  0  0
    7.5192   -0.6318   -1.0880 H   0  0  0  0  0  0  0  0  0  0  0  0
    9.4364   -0.9843   -2.5798 H   0  0  0  0  0  0  0  0  0  0  0  0
   10.2640   -1.9635   -1.3718 H   0  0  0  0  0  0  0  0  0  0  0  0
   11.1998    1.9196    1.0084 H   0  0  0  0  0  0  0  0  0  0  0  0
    9.1080   -2.4283    0.8396 H   0  0  0  0  0  0  0  0  0  0  0  0
    6.9661   -2.6874    1.9547 H   0  0  0  0  0  0  0  0  0  0  0  0
    6.5053   -0.3851    1.6585 H   0  0  0  0  0  0  0  0  0  0  0  0
  1  2  1  0  0  0  0
  1 23  1  0  0  0  0
  1 24  1  0  0  0  0
  2  3  1  0  0  0  0
  2  7  2  0  0  0  0
  3  4  2  0  0  0  0
  4  5  1  0  0  0  0
  4 25  1  0  0  0  0
  5  6  2  0  0  0  0
  6  7  1  0  0  0  0
  6 10  1  0  0  0  0
  7  8  1  0  0  0  0
  8  9  2  0  0  0  0
  9 10  1  0  0  0  0
  9 26  1  0  0  0  0
 11 12  1  0  0  0  0
 11 21  1  0  0  0  0
 11 10  1  0  0  0  0
 11 27  1  6  0  0  0
 12 13  1  0  0  0  0
 13 14  1  0  0  0  0
 13 20  1  0  0  0  0
 13 28  1  6  0  0  0
 14 15  1  0  0  0  0
 14 29  1  0  0  0  0
 14 30  1  0  0  0  0
 15 16  1  0  0  0  0
 16 17  2  0  0  0  0
 16 18  1  0  0  0  0
 16 19  1  0  0  0  0
 18 31  1  0  0  0  0
 19 20  1  0  0  0  0
 20 21  1  0  0  0  0
 20 32  1  1  0  0  0
 21 22  1  0  0  0  0
 21 33  1  1  0  0  0
 22 34  1  0  0  0  0
M  END
$$$$
