CHEBI:17798
 OpenBabel04242417373D

 24 23  0  0  1  0  0  0  0  0999 V2000
    2.1840   -0.9958   -1.3462 N   0  0  0  0  0  0  0  0  0  0  0  0
    2.7153   -0.6443   -0.0044 C   0  0  1  0  0  0  0  0  0  0  0  0
    3.4571    0.7008    0.0750 C   0  0  0  0  0  0  0  0  0  0  0  0
    2.6137    1.9759    0.0036 C   0  0  0  0  0  0  0  0  0  0  0  0
    1.9691    2.1531   -1.3392 C   0  0  0  0  0  0  0  0  0  0  0  0
    2.5660    2.1274   -2.4071 O   0  0  0  0  0  0  0  0  0  0  0  0
    0.6361    2.2541   -1.2312 O   0  0  0  0  0  0  0  0  0  0  0  0
   -0.2710    2.0521   -2.5259 P   0  0  0  0  0  0  0  0  0  0  0  0
   -0.2156    0.6909   -3.1312 O   0  0  0  0  0  0  0  0  0  0  0  0
   -1.7361    2.4657   -2.0475 O   0  0  0  0  0  0  0  0  0  0  0  0
    0.1138    3.2397   -3.5192 O   0  0  0  0  0  0  0  0  0  0  0  0
    1.5843   -0.7729    1.0310 C   0  0  0  0  0  0  0  0  0  0  0  0
    1.5978   -0.2992    2.1550 O   0  0  0  0  0  0  0  0  0  0  0  0
    0.5524   -1.5070    0.5390 O   0  0  0  0  0  0  0  0  0  0  0  0
    2.9600   -0.9957   -2.0160 H   0  0  0  0  0  0  0  0  0  0  0  0
    1.5454   -0.2842   -1.7133 H   0  0  0  0  0  0  0  0  0  0  0  0
    3.4306   -1.4364    0.2504 H   0  0  0  0  0  0  0  0  0  0  0  0
    4.2275    0.7270   -0.7068 H   0  0  0  0  0  0  0  0  0  0  0  0
    3.9987    0.7269    1.0302 H   0  0  0  0  0  0  0  0  0  0  0  0
    3.2482    2.8532    0.1755 H   0  0  0  0  0  0  0  0  0  0  0  0
    1.8527    1.9852    0.7907 H   0  0  0  0  0  0  0  0  0  0  0  0
   -2.4144    2.1391   -2.6655 H   0  0  0  0  0  0  0  0  0  0  0  0
    0.9722    3.0645   -3.9552 H   0  0  0  0  0  0  0  0  0  0  0  0
    0.8084   -1.7711   -0.3806 H   0  0  0  0  0  0  0  0  0  0  0  0
  1  2  1  0  0  0  0
  1 15  1  0  0  0  0
  1 16  1  0  0  0  0
  2  3  1  0  0  0  0
  2 12  1  0  0  0  0
  2 17  1  1  0  0  0
  3  4  1  0  0  0  0
  3 18  1  0  0  0  0
  3 19  1  0  0  0  0
  4  5  1  0  0  0  0
  4 20  1  0  0  0  0
  4 21  1  0  0  0  0
  5  6  2  0  0  0  0
  5  7  1  0  0  0  0
  7  8  1  0  0  0  0
  8  9  2  0  0  0  0
  8 10  1  0  0  0  0
  8 11  1  0  0  0  0
 10 22  1  0  0  0  0
 11 23  1  0  0  0  0
 12 13  2  0  0  0  0
 12 14  1  0  0  0  0
 14 24  1  0  0  0  0
M  END
$$$$
