CHEBI:15596
 OpenBabel04242412513D

 40 40  0  0  1  0  0  0  0  0999 V2000
    9.5010    0.1433    1.2300 C   0  0  0  0  0  0  0  0  0  0  0  0
    8.1326    0.5337    1.2187 O   0  0  0  0  0  0  0  0  0  0  0  0
    7.8635    1.8703    1.0643 C   0  0  0  0  0  0  0  0  0  0  0  0
    8.8259    2.8823    0.9976 C   0  0  0  0  0  0  0  0  0  0  0  0
    8.4489    4.2230    0.8134 C   0  0  0  0  0  0  0  0  0  0  0  0
    9.5009    5.2495    0.7790 C   0  0  0  0  0  0  0  0  0  0  0  0
    9.4580    6.3470    0.0088 C   0  0  0  0  0  0  0  0  0  0  0  0
   10.5766    7.2983    0.0444 C   0  0  0  0  0  0  0  0  0  0  0  0
   11.5839    7.2312    0.7192 O   0  0  0  0  0  0  0  0  0  0  0  0
   10.3496    8.3096   -0.8088 O   0  0  0  0  0  0  0  0  0  0  0  0
    7.0883    4.5426    0.7112 C   0  0  0  0  0  0  0  0  0  0  0  0
    6.1151    3.5420    0.7464 C   0  0  0  0  0  0  0  0  0  0  0  0
    4.8232    3.9686    0.6068 O   0  0  0  0  0  0  0  0  0  0  0  0
    4.0901    3.2791   -0.4029 C   0  0  0  0  0  0  0  0  0  0  0  0
    6.5071    2.2189    0.9635 C   0  0  0  0  0  0  0  0  0  0  0  0
    5.5765    1.1716    0.9939 O   0  0  0  0  0  0  0  0  0  0  0  0
    4.7954    1.0679    2.1323 C   0  0  0  0  0  0  0  0  0  0  0  0
    4.7838    1.8351    3.0897 O   0  0  0  0  0  0  0  0  0  0  0  0
    3.9736   -0.2322    2.1007 C   0  0  1  0  0  0  0  0  0  0  0  0
    2.9219   -0.1687    3.0789 O   0  0  0  0  0  0  0  0  0  0  0  0
    3.3181   -0.5361    0.7606 C   0  0  0  0  0  0  0  0  0  0  0  0
    4.3058   -0.8171   -0.3316 C   0  0  0  0  0  0  0  0  0  0  0  0
    4.2743   -0.3420   -1.4549 O   0  0  0  0  0  0  0  0  0  0  0  0
    5.2708   -1.6823    0.0235 O   0  0  0  0  0  0  0  0  0  0  0  0
   10.0032    0.4288    0.2994 H   0  0  0  0  0  0  0  0  0  0  0  0
    9.5371   -0.9480    1.3033 H   0  0  0  0  0  0  0  0  0  0  0  0
   10.0199    0.5533    2.1026 H   0  0  0  0  0  0  0  0  0  0  0  0
    9.8839    2.6515    1.0797 H   0  0  0  0  0  0  0  0  0  0  0  0
   10.3664    5.0646    1.4142 H   0  0  0  0  0  0  0  0  0  0  0  0
    8.6386    6.5739   -0.6613 H   0  0  0  0  0  0  0  0  0  0  0  0
   11.1401    8.8802   -0.7108 H   0  0  0  0  0  0  0  0  0  0  0  0
    6.7664    5.5746    0.5948 H   0  0  0  0  0  0  0  0  0  0  0  0
    3.4328    4.0044   -0.8915 H   0  0  0  0  0  0  0  0  0  0  0  0
    3.4555    2.5201    0.0602 H   0  0  0  0  0  0  0  0  0  0  0  0
    4.7286    2.8298   -1.1717 H   0  0  0  0  0  0  0  0  0  0  0  0
    4.6431   -1.0410    2.4121 H   0  0  0  0  0  0  0  0  0  0  0  0
    3.2621    0.3744    3.8190 H   0  0  0  0  0  0  0  0  0  0  0  0
    2.6870    0.3047    0.4508 H   0  0  0  0  0  0  0  0  0  0  0  0
    2.6537   -1.4045    0.8438 H   0  0  0  0  0  0  0  0  0  0  0  0
    5.8594   -1.7269   -0.7609 H   0  0  0  0  0  0  0  0  0  0  0  0
  1  2  1  0  0  0  0
  1 25  1  0  0  0  0
  1 26  1  0  0  0  0
  1 27  1  0  0  0  0
  2  3  1  0  0  0  0
  3  4  1  0  0  0  0
  3 15  2  0  0  0  0
  4  5  2  0  0  0  0
  4 28  1  0  0  0  0
  5  6  1  0  0  0  0
  5 11  1  0  0  0  0
  6  7  2  0  0  0  0
  6 29  1  0  0  0  0
  7  8  1  0  0  0  0
  7 30  1  0  0  0  0
  8  9  2  0  0  0  0
  8 10  1  0  0  0  0
 10 31  1  0  0  0  0
 11 12  2  0  0  0  0
 11 32  1  0  0  0  0
 12 13  1  0  0  0  0
 12 15  1  0  0  0  0
 13 14  1  0  0  0  0
 14 33  1  0  0  0  0
 14 34  1  0  0  0  0
 14 35  1  0  0  0  0
 15 16  1  0  0  0  0
 16 17  1  0  0  0  0
 17 18  2  0  0  0  0
 17 19  1  0  0  0  0
 19 20  1  0  0  0  0
 19 21  1  0  0  0  0
 19 36  1  1  0  0  0
 20 37  1  0  0  0  0
 21 22  1  0  0  0  0
 21 38  1  0  0  0  0
 21 39  1  0  0  0  0
 22 23  2  0  0  0  0
 22 24  1  0  0  0  0
 24 40  1  0  0  0  0
M  END
$$$$
