CHEBI:15511
 OpenBabel04242412263D

105108  0  0  1  0  0  0  0  0999 V2000
   31.2206    5.2856    3.5223 C   0  0  0  0  0  0  0  0  0  0  0  0
   30.5203    5.6241    4.7171 O   0  0  0  0  0  0  0  0  0  0  0  0
   29.7825    6.7772    4.6475 C   0  0  0  0  0  0  0  0  0  0  0  0
   30.2691    7.9928    4.1612 C   0  0  0  0  0  0  0  0  0  0  0  0
   29.4742    9.1499    4.2191 C   0  0  0  0  0  0  0  0  0  0  0  0
   30.0139   10.4131    3.6926 C   0  0  0  0  0  0  0  0  0  0  0  0
   29.7688   11.6074    4.2541 C   0  0  0  0  0  0  0  0  0  0  0  0
   30.3229   12.8451    3.6593 C   0  0  0  0  0  0  0  0  0  0  0  0
   31.0484   12.8810    2.6759 O   0  0  0  0  0  0  0  0  0  0  0  0
   29.8157   14.2982    4.4964 S   0  0  0  0  0  0  0  0  0  0  0  0
   28.9910   15.1232    3.0930 C   0  0  0  0  0  0  0  0  0  0  0  0
   28.3346   16.4278    3.5421 C   0  0  0  0  0  0  0  0  0  0  0  0
   29.2879   17.4068    4.0344 N   0  0  0  0  0  0  0  0  0  0  0  0
   28.8593   18.6426    4.4729 C   0  0  0  0  0  0  0  0  0  0  0  0
   27.6937   19.0136    4.3896 O   0  0  0  0  0  0  0  0  0  0  0  0
   29.9703   19.4824    5.0655 C   0  0  0  0  0  0  0  0  0  0  0  0
   29.4410   20.8296    5.5398 C   0  0  0  0  0  0  0  0  0  0  0  0
   30.4786   21.6577    6.1263 N   0  0  0  0  0  0  0  0  0  0  0  0
   31.3538   22.4042    5.3596 C   0  0  0  0  0  0  0  0  0  0  0  0
   31.3798   22.3461    4.1356 O   0  0  0  0  0  0  0  0  0  0  0  0
   32.2807   23.2955    6.2239 C   0  0  2  0  0  0  0  0  0  0  0  0
   31.4652   24.0190    7.1589 O   0  0  0  0  0  0  0  0  0  0  0  0
   33.2446   24.2441    5.4497 C   0  0  0  0  0  0  0  0  0  0  0  0
   32.4975   25.2601    4.5677 C   0  0  0  0  0  0  0  0  0  0  0  0
   34.0703   25.0545    6.4829 C   0  0  0  0  0  0  0  0  0  0  0  0
   34.2295   23.4191    4.5874 C   0  0  0  0  0  0  0  0  0  0  0  0
   34.9643   22.5747    5.4531 O   0  0  0  0  0  0  0  0  0  0  0  0
   35.9731   21.4949    4.8412 P   0  0  0  0  0  0  0  0  0  0  0  0
   36.2479   21.6011    3.3802 O   0  0  0  0  0  0  0  0  0  0  0  0
   37.2829   21.7508    5.7250 O   0  0  0  0  0  0  0  0  0  0  0  0
   35.4041   20.1160    5.3832 O   0  0  0  0  0  0  0  0  0  0  0  0
   36.1976   18.7584    5.2153 P   0  0  0  0  0  0  0  0  0  0  0  0
   37.4943   18.6633    5.9482 O   0  0  0  0  0  0  0  0  0  0  0  0
   35.1487   17.6412    5.6863 O   0  0  0  0  0  0  0  0  0  0  0  0
   36.2814   18.5211    3.6411 O   0  0  0  0  0  0  0  0  0  0  0  0
   37.3682   17.7838    3.1281 C   0  0  0  0  0  0  0  0  0  0  0  0
   37.3526   17.8256    1.6010 C   0  0  1  0  0  0  0  0  0  0  0  0
   38.3691   16.9380    1.1075 O   0  0  0  0  0  0  0  0  0  0  0  0
   37.8019   16.1216    0.0588 C   0  0  1  0  0  0  0  0  0  0  0  0
   37.9317   14.7475    0.4926 N   0  0  0  0  0  0  0  0  0  0  0  0
   39.1167   14.0496    0.4326 C   0  0  0  0  0  0  0  0  0  0  0  0
   39.0207   12.8570    0.9780 N   0  0  0  0  0  0  0  0  0  0  0  0
   37.7216   12.7873    1.4312 C   0  0  0  0  0  0  0  0  0  0  0  0
   37.0213   11.7883    2.1272 C   0  0  0  0  0  0  0  0  0  0  0  0
   37.6071   10.5957    2.5321 N   0  0  0  0  0  0  0  0  0  0  0  0
   35.7147   11.9899    2.4080 N   0  0  0  0  0  0  0  0  0  0  0  0
   35.1508   13.1563    2.0284 C   0  0  0  0  0  0  0  0  0  0  0  0
   35.7291   14.1937    1.3867 N   0  0  0  0  0  0  0  0  0  0  0  0
   37.0196   13.9412    1.1148 C   0  0  0  0  0  0  0  0  0  0  0  0
   36.4048   16.6778   -0.2807 C   0  0  2  0  0  0  0  0  0  0  0  0
   36.5575   17.5860   -1.3786 O   0  0  0  0  0  0  0  0  0  0  0  0
   36.0144   17.3712    1.0209 C   0  0  2  0  0  0  0  0  0  0  0  0
   34.9978   18.3543    1.0142 O   0  0  0  0  0  0  0  0  0  0  0  0
   34.9059   19.5375   -0.0471 P   0  0  0  0  0  0  0  0  0  0  0  0
   34.4442   19.1405   -1.4088 O   0  0  0  0  0  0  0  0  0  0  0  0
   33.9479   20.5890    0.6709 O   0  0  0  0  0  0  0  0  0  0  0  0
   36.3040   20.2927    0.0029 O   0  0  0  0  0  0  0  0  0  0  0  0
   28.1765    9.0625    4.7486 C   0  0  0  0  0  0  0  0  0  0  0  0
   27.6940    7.8536    5.2516 C   0  0  0  0  0  0  0  0  0  0  0  0
   28.5043    6.7285    5.2085 C   0  0  0  0  0  0  0  0  0  0  0  0
   28.0193    5.5615    5.7297 O   0  0  0  0  0  0  0  0  0  0  0  0
   31.7918    6.1141    3.0963 H   0  0  0  0  0  0  0  0  0  0  0  0
   30.5213    4.8859    2.7811 H   0  0  0  0  0  0  0  0  0  0  0  0
   31.9357    4.4961    3.7741 H   0  0  0  0  0  0  0  0  0  0  0  0
   31.2829    8.0663    3.7800 H   0  0  0  0  0  0  0  0  0  0  0  0
   30.6517   10.3347    2.8134 H   0  0  0  0  0  0  0  0  0  0  0  0
   29.1603   11.7061    5.1456 H   0  0  0  0  0  0  0  0  0  0  0  0
   28.2265   14.4519    2.6873 H   0  0  0  0  0  0  0  0  0  0  0  0
   29.7297   15.3205    2.3093 H   0  0  0  0  0  0  0  0  0  0  0  0
   27.5915   16.2460    4.3283 H   0  0  0  0  0  0  0  0  0  0  0  0
   27.8019   16.8813    2.6977 H   0  0  0  0  0  0  0  0  0  0  0  0
   30.1907   17.0730    4.3541 H   0  0  0  0  0  0  0  0  0  0  0  0
   30.7474   19.6183    4.3048 H   0  0  0  0  0  0  0  0  0  0  0  0
   30.4137   18.9363    5.9065 H   0  0  0  0  0  0  0  0  0  0  0  0
   28.6718   20.6917    6.3078 H   0  0  0  0  0  0  0  0  0  0  0  0
   28.9866   21.3802    4.7079 H   0  0  0  0  0  0  0  0  0  0  0  0
   30.4543   21.8585    7.1222 H   0  0  0  0  0  0  0  0  0  0  0  0
   32.8757   22.6006    6.8306 H   0  0  0  0  0  0  0  0  0  0  0  0
   30.8890   24.6091    6.6425 H   0  0  0  0  0  0  0  0  0  0  0  0
   31.8365   25.8996    5.1626 H   0  0  0  0  0  0  0  0  0  0  0  0
   31.8908   24.7753    3.7985 H   0  0  0  0  0  0  0  0  0  0  0  0
   33.2045   25.9211    4.0523 H   0  0  0  0  0  0  0  0  0  0  0  0
   33.4371   25.7327    7.0645 H   0  0  0  0  0  0  0  0  0  0  0  0
   34.8333   25.6633    5.9837 H   0  0  0  0  0  0  0  0  0  0  0  0
   34.5858   24.3968    7.1922 H   0  0  0  0  0  0  0  0  0  0  0  0
   34.9320   24.0790    4.0649 H   0  0  0  0  0  0  0  0  0  0  0  0
   33.7202   22.8166    3.8303 H   0  0  0  0  0  0  0  0  0  0  0  0
   38.0851   21.3632    5.3283 H   0  0  0  0  0  0  0  0  0  0  0  0
   35.6025   16.8384    6.0009 H   0  0  0  0  0  0  0  0  0  0  0  0
   37.3133   16.7506    3.4913 H   0  0  0  0  0  0  0  0  0  0  0  0
   38.3140   18.2018    3.4915 H   0  0  0  0  0  0  0  0  0  0  0  0
   37.6090   18.8374    1.2819 H   0  0  0  0  0  0  0  0  0  0  0  0
   38.4608   16.2262   -0.8127 H   0  0  0  0  0  0  0  0  0  0  0  0
   40.0153   14.4726   -0.0014 H   0  0  0  0  0  0  0  0  0  0  0  0
   38.4517   10.3704    2.0174 H   0  0  0  0  0  0  0  0  0  0  0  0
   36.9257    9.8615    2.6667 H   0  0  0  0  0  0  0  0  0  0  0  0
   34.0977   13.2737    2.2743 H   0  0  0  0  0  0  0  0  0  0  0  0
   35.6894   15.9160   -0.6013 H   0  0  0  0  0  0  0  0  0  0  0  0
   35.6653   17.8089   -1.7261 H   0  0  0  0  0  0  0  0  0  0  0  0
   35.6235   16.5981    1.6886 H   0  0  0  0  0  0  0  0  0  0  0  0
   33.0097   20.3347    0.6276 H   0  0  0  0  0  0  0  0  0  0  0  0
   36.3145   21.0738   -0.5768 H   0  0  0  0  0  0  0  0  0  0  0  0
   27.5253    9.9324    4.7823 H   0  0  0  0  0  0  0  0  0  0  0  0
   26.6984    7.7925    5.6810 H   0  0  0  0  0  0  0  0  0  0  0  0
   28.7529    4.9219    5.6509 H   0  0  0  0  0  0  0  0  0  0  0  0
  1  2  1  0  0  0  0
  1 62  1  0  0  0  0
  1 63  1  0  0  0  0
  1 64  1  0  0  0  0
  2  3  1  0  0  0  0
  3  4  1  0  0  0  0
  3 60  2  0  0  0  0
  4  5  2  0  0  0  0
  4 65  1  0  0  0  0
  5  6  1  0  0  0  0
  5 58  1  0  0  0  0
  6  7  2  0  0  0  0
  6 66  1  0  0  0  0
  7  8  1  0  0  0  0
  7 67  1  0  0  0  0
  8  9  2  0  0  0  0
  8 10  1  0  0  0  0
 10 11  1  0  0  0  0
 11 12  1  0  0  0  0
 11 68  1  0  0  0  0
 11 69  1  0  0  0  0
 12 13  1  0  0  0  0
 12 70  1  0  0  0  0
 12 71  1  0  0  0  0
 13 14  1  0  0  0  0
 13 72  1  0  0  0  0
 14 15  2  0  0  0  0
 14 16  1  0  0  0  0
 16 17  1  0  0  0  0
 16 73  1  0  0  0  0
 16 74  1  0  0  0  0
 17 18  1  0  0  0  0
 17 75  1  0  0  0  0
 17 76  1  0  0  0  0
 18 19  1  0  0  0  0
 18 77  1  0  0  0  0
 19 20  2  0  0  0  0
 21 23  1  0  0  0  0
 21 22  1  0  0  0  0
 21 19  1  0  0  0  0
 21 78  1  1  0  0  0
 22 79  1  0  0  0  0
 23 24  1  0  0  0  0
 23 25  1  0  0  0  0
 23 26  1  0  0  0  0
 24 80  1  0  0  0  0
 24 81  1  0  0  0  0
 24 82  1  0  0  0  0
 25 83  1  0  0  0  0
 25 84  1  0  0  0  0
 25 85  1  0  0  0  0
 26 27  1  0  0  0  0
 26 86  1  0  0  0  0
 26 87  1  0  0  0  0
 27 28  1  0  0  0  0
 28 29  2  0  0  0  0
 28 30  1  0  0  0  0
 28 31  1  0  0  0  0
 30 88  1  0  0  0  0
 31 32  1  0  0  0  0
 32 33  2  0  0  0  0
 32 34  1  0  0  0  0
 32 35  1  0  0  0  0
 34 89  1  0  0  0  0
 35 36  1  0  0  0  0
 36 90  1  0  0  0  0
 36 91  1  0  0  0  0
 37 38  1  0  0  0  0
 37 52  1  0  0  0  0
 37 36  1  0  0  0  0
 37 92  1  6  0  0  0
 38 39  1  0  0  0  0
 39 50  1  0  0  0  0
 39 40  1  0  0  0  0
 39 93  1  6  0  0  0
 40 41  1  0  0  0  0
 40 49  1  0  0  0  0
 41 42  2  0  0  0  0
 41 94  1  0  0  0  0
 42 43  1  0  0  0  0
 43 44  1  0  0  0  0
 43 49  2  0  0  0  0
 44 45  1  0  0  0  0
 44 46  2  0  0  0  0
 45 95  1  0  0  0  0
 45 96  1  0  0  0  0
 46 47  1  0  0  0  0
 47 48  2  0  0  0  0
 47 97  1  0  0  0  0
 48 49  1  0  0  0  0
 50 51  1  0  0  0  0
 50 52  1  0  0  0  0
 50 98  1  6  0  0  0
 51 99  1  0  0  0  0
 52 53  1  0  0  0  0
 52100  1  1  0  0  0
 53 54  1  0  0  0  0
 54 55  2  0  0  0  0
 54 56  1  0  0  0  0
 54 57  1  0  0  0  0
 56101  1  0  0  0  0
 57102  1  0  0  0  0
 58 59  2  0  0  0  0
 58103  1  0  0  0  0
 59 60  1  0  0  0  0
 59104  1  0  0  0  0
 60 61  1  0  0  0  0
 61105  1  0  0  0  0
M  END
$$$$
