CHEBI:17548
 OpenBabel04242416473D

 23 23  0  0  1  0  0  0  0  0999 V2000
    2.3212    0.7340    0.0129 H   0  0  0  0  0  0  0  0  0  0  0  0
    1.8319   -0.0888    0.2399 O   0  0  0  0  0  0  0  0  0  0  0  0
    2.3823   -1.1016   -0.6248 C   0  0  2  0  0  0  0  0  0  0  0  0
    1.9087   -2.4882   -0.1716 C   0  0  0  0  0  0  0  0  0  0  0  0
    0.3898   -2.5926   -0.3828 C   0  0  0  0  0  0  0  0  0  0  0  0
   -0.1737   -3.5051   -0.9701 O   0  0  0  0  0  0  0  0  0  0  0  0
   -0.3087   -1.5763    0.1865 O   0  0  0  0  0  0  0  0  0  0  0  0
    2.5995   -3.5161   -0.8913 O   0  0  0  0  0  0  0  0  0  0  0  0
    4.0051   -3.4935   -0.6661 C   0  0  1  0  0  0  0  0  0  0  0  0
    4.5819   -4.6239   -1.2949 O   0  0  0  0  0  0  0  0  0  0  0  0
    4.5746   -2.2005   -1.2664 C   0  0  1  0  0  0  0  0  0  0  0  0
    4.2866   -2.1434   -2.6815 O   0  0  0  0  0  0  0  0  0  0  0  0
    3.9126   -1.0042   -0.5863 C   0  0  1  0  0  0  0  0  0  0  0  0
    4.2965    0.2232   -1.2210 O   0  0  0  0  0  0  0  0  0  0  0  0
    2.0193   -0.8817   -1.6368 H   0  0  0  0  0  0  0  0  0  0  0  0
    2.0736   -2.6366    0.9038 H   0  0  0  0  0  0  0  0  0  0  0  0
    0.2758   -0.8610    0.5389 H   0  0  0  0  0  0  0  0  0  0  0  0
    4.2132   -3.5669    0.4072 H   0  0  0  0  0  0  0  0  0  0  0  0
    4.7340   -4.3898   -2.2270 H   0  0  0  0  0  0  0  0  0  0  0  0
    5.6645   -2.1570   -1.1750 H   0  0  0  0  0  0  0  0  0  0  0  0
    3.4528   -2.6368   -2.8315 H   0  0  0  0  0  0  0  0  0  0  0  0
    4.2478   -0.9333    0.4555 H   0  0  0  0  0  0  0  0  0  0  0  0
    4.4642    0.0055   -2.1625 H   0  0  0  0  0  0  0  0  0  0  0  0
  1  2  1  0  0  0  0
  2  3  1  0  0  0  0
  3  4  1  0  0  0  0
  3 13  1  0  0  0  0
  3 15  1  6  0  0  0
  4  5  1  0  0  0  0
  4  8  1  0  0  0  0
  4 16  1  0  0  0  0
  5  6  2  0  0  0  0
  5  7  1  0  0  0  0
  7 17  1  0  0  0  0
  8  9  1  0  0  0  0
  9 10  1  0  0  0  0
  9 11  1  0  0  0  0
  9 18  1  1  0  0  0
 10 19  1  0  0  0  0
 11 12  1  0  0  0  0
 11 13  1  0  0  0  0
 11 20  1  1  0  0  0
 12 21  1  0  0  0  0
 13 14  1  0  0  0  0
 13 22  1  1  0  0  0
 14 23  1  0  0  0  0
M  END
$$$$
