CHEBI:19500
 OpenBabel04252409373D

 19 18  0  0  0  0  0  0  0  0999 V2000
    0.4137    0.4114    0.3644 O   0  0  0  0  0  0  0  0  0  0  0  0
    1.3911    1.0700    0.0418 C   0  0  0  0  0  0  0  0  0  0  0  0
    1.2949    2.3266   -0.4409 O   0  0  0  0  0  0  0  0  0  0  0  0
    2.8094    0.5885    0.2079 C   0  0  0  0  0  0  0  0  0  0  0  0
    3.3885    1.0598    1.5364 C   0  0  0  0  0  0  0  0  0  0  0  0
    3.6743    2.5560    1.5326 C   0  0  0  0  0  0  0  0  0  0  0  0
    3.5854    3.1867    0.4707 O   0  0  0  0  0  0  0  0  0  0  0  0
    3.9150    3.2424    2.8621 C   0  0  0  0  0  0  0  0  0  0  0  0
    4.9648    2.2576    3.9167 Cl  0  0  0  0  0  0  0  0  0  0  0  0
    4.5289    4.6103    2.7321 C   0  0  0  0  0  0  0  0  0  0  0  0
    4.0349    5.6517    3.1396 O   0  0  0  0  0  0  0  0  0  0  0  0
    5.7381    4.6281    2.1329 O   0  0  0  0  0  0  0  0  0  0  0  0
    2.1664    2.7793   -0.5464 H   0  0  0  0  0  0  0  0  0  0  0  0
    3.4085    0.9026   -0.6540 H   0  0  0  0  0  0  0  0  0  0  0  0
    2.7872   -0.5076    0.1810 H   0  0  0  0  0  0  0  0  0  0  0  0
    4.3325    0.5345    1.7142 H   0  0  0  0  0  0  0  0  0  0  0  0
    2.6924    0.8382    2.3526 H   0  0  0  0  0  0  0  0  0  0  0  0
    2.9471    3.3411    3.3644 H   0  0  0  0  0  0  0  0  0  0  0  0
    6.0019    5.5733    2.1323 H   0  0  0  0  0  0  0  0  0  0  0  0
  1  2  2  0  0  0  0
  2  3  1  0  0  0  0
  2  4  1  0  0  0  0
  3 13  1  0  0  0  0
  4  5  1  0  0  0  0
  4 14  1  0  0  0  0
  4 15  1  0  0  0  0
  5  6  1  0  0  0  0
  5 16  1  0  0  0  0
  5 17  1  0  0  0  0
  6  7  2  0  0  0  0
  6  8  1  0  0  0  0
  8  9  1  0  0  0  0
  8 10  1  0  0  0  0
  8 18  1  0  0  0  0
 10 11  2  0  0  0  0
 10 12  1  0  0  0  0
 12 19  1  0  0  0  0
M  END
$$$$
