CHEBI:27406
 OpenBabel04252409503D

 16 17  0  0  0  0  0  0  0  0999 V2000
    0.8467   -0.0216    0.0540 O   0  0  0  0  0  0  0  0  0  0  0  0
    2.0695   -0.0464    0.0545 C   0  0  0  0  0  0  0  0  0  0  0  0
    2.8432    1.2157    0.0554 C   0  0  0  0  0  0  0  0  0  0  0  0
    4.1719    1.1308    0.0579 C   0  0  0  0  0  0  0  0  0  0  0  0
    5.1382    2.2176    0.0591 C   0  0  0  0  0  0  0  0  0  0  0  0
    6.3454    1.6211    0.0618 C   0  0  0  0  0  0  0  0  0  0  0  0
    6.2237    0.2490    0.0629 N   0  0  0  0  0  0  0  0  0  0  0  0
    4.9071   -0.1315    0.0599 C   0  0  0  0  0  0  0  0  0  0  0  0
    4.3223   -1.3264    0.0585 C   0  0  0  0  0  0  0  0  0  0  0  0
    2.8434   -1.3753    0.0542 C   0  0  0  0  0  0  0  0  0  0  0  0
    2.2613   -2.4511    0.0503 O   0  0  0  0  0  0  0  0  0  0  0  0
    2.2913    2.1451    0.0541 H   0  0  0  0  0  0  0  0  0  0  0  0
    4.9265    3.2734    0.0578 H   0  0  0  0  0  0  0  0  0  0  0  0
    7.3222    2.0850    0.0629 H   0  0  0  0  0  0  0  0  0  0  0  0
    7.0065   -0.3893    0.0618 H   0  0  0  0  0  0  0  0  0  0  0  0
    4.8600   -2.2630    0.0597 H   0  0  0  0  0  0  0  0  0  0  0  0
  1  2  2  0  0  0  0
  2  3  1  0  0  0  0
  2 10  1  0  0  0  0
  3  4  2  0  0  0  0
  3 12  1  0  0  0  0
  4  5  1  0  0  0  0
  4  8  1  0  0  0  0
  5  6  2  0  0  0  0
  5 13  1  0  0  0  0
  6  7  1  0  0  0  0
  6 14  1  0  0  0  0
  7  8  1  0  0  0  0
  7 15  1  0  0  0  0
  8  9  2  0  0  0  0
  9 10  1  0  0  0  0
  9 16  1  0  0  0  0
 10 11  2  0  0  0  0
M  END
$$$$
