CHEBI:27438
 OpenBabel04252409593D

 45 45  0  0  1  0  0  0  0  0999 V2000
    7.3717    1.3933    1.4639 C   0  0  0  0  0  0  0  0  0  0  0  0
    6.1446    0.9848    0.6949 C   0  0  0  0  0  0  0  0  0  0  0  0
    5.0335    1.4497    0.9254 O   0  0  0  0  0  0  0  0  0  0  0  0
    6.3836    0.1272   -0.3487 N   0  0  0  0  0  0  0  0  0  0  0  0
    5.3094   -0.4652   -1.1579 C   0  0  1  0  0  0  0  0  0  0  0  0
    5.4856   -0.1325   -2.6633 C   0  0  2  0  0  0  0  0  0  0  0  0
    5.0802    1.3363   -2.9616 C   0  0  2  0  0  0  0  0  0  0  0  0
    5.9093    2.2835   -2.2714 O   0  0  0  0  0  0  0  0  0  0  0  0
    5.1098    1.7220   -4.4582 C   0  0  2  0  0  0  0  0  0  0  0  0
    4.7123    3.1139   -4.5412 O   0  0  0  0  0  0  0  0  0  0  0  0
    6.4925    1.5830   -5.1088 C   0  0  0  0  0  0  0  0  0  0  0  0
    6.4453    1.8012   -6.5133 O   0  0  0  0  0  0  0  0  0  0  0  0
    6.3283    3.2736   -7.1282 P   0  0  0  0  0  0  0  0  0  0  0  0
    6.8689    3.4301   -8.5092 O   0  0  0  0  0  0  0  0  0  0  0  0
    4.8054    3.7119   -6.9699 O   0  0  0  0  0  0  0  0  0  0  0  0
    7.0728    4.2570   -6.1112 O   0  0  0  0  0  0  0  0  0  0  0  0
    4.6801   -0.9604   -3.5078 O   0  0  0  0  0  0  0  0  0  0  0  0
    4.8386   -2.3598   -3.3369 C   0  0  0  0  0  0  0  0  0  0  0  0
    3.8682   -2.9828   -4.1791 O   0  0  0  0  0  0  0  0  0  0  0  0
    6.2669   -2.8781   -3.7205 C   0  0  0  0  0  0  0  0  0  0  0  0
    7.2980   -2.7291   -3.0835 O   0  0  0  0  0  0  0  0  0  0  0  0
    6.2945   -3.4646   -4.9414 O   0  0  0  0  0  0  0  0  0  0  0  0
    4.4584   -2.7447   -1.9117 C   0  0  0  0  0  0  0  0  0  0  0  0
    5.2812   -1.9845   -0.8877 C   0  0  2  0  0  0  0  0  0  0  0  0
    4.7767   -2.2675    0.4228 O   0  0  0  0  0  0  0  0  0  0  0  0
    7.1864    1.2691    2.5337 H   0  0  0  0  0  0  0  0  0  0  0  0
    7.5925    2.4415    1.2437 H   0  0  0  0  0  0  0  0  0  0  0  0
    8.2415    0.7895    1.1905 H   0  0  0  0  0  0  0  0  0  0  0  0
    7.3177   -0.2556   -0.4528 H   0  0  0  0  0  0  0  0  0  0  0  0
    4.3485   -0.0539   -0.8236 H   0  0  0  0  0  0  0  0  0  0  0  0
    6.5410   -0.2642   -2.9280 H   0  0  0  0  0  0  0  0  0  0  0  0
    4.0527    1.5076   -2.6133 H   0  0  0  0  0  0  0  0  0  0  0  0
    5.6111    2.2882   -1.3395 H   0  0  0  0  0  0  0  0  0  0  0  0
    4.3690    1.1524   -5.0290 H   0  0  0  0  0  0  0  0  0  0  0  0
    5.2080    3.5503   -3.8105 H   0  0  0  0  0  0  0  0  0  0  0  0
    7.2205    2.2668   -4.6616 H   0  0  0  0  0  0  0  0  0  0  0  0
    6.8737    0.5667   -4.9786 H   0  0  0  0  0  0  0  0  0  0  0  0
    4.5255    3.6335   -6.0279 H   0  0  0  0  0  0  0  0  0  0  0  0
    7.4260    5.0144   -6.6157 H   0  0  0  0  0  0  0  0  0  0  0  0
    4.3064   -3.0799   -5.0463 H   0  0  0  0  0  0  0  0  0  0  0  0
    7.2364   -3.7026   -5.0852 H   0  0  0  0  0  0  0  0  0  0  0  0
    4.5616   -3.8258   -1.7524 H   0  0  0  0  0  0  0  0  0  0  0  0
    3.3931   -2.5335   -1.7407 H   0  0  0  0  0  0  0  0  0  0  0  0
    6.3035   -2.3758   -0.8860 H   0  0  0  0  0  0  0  0  0  0  0  0
    4.0245   -1.6758    0.6081 H   0  0  0  0  0  0  0  0  0  0  0  0
  1  2  1  0  0  0  0
  1 26  1  0  0  0  0
  1 27  1  0  0  0  0
  1 28  1  0  0  0  0
  2  3  2  0  0  0  0
  2  4  1  0  0  0  0
  4 29  1  0  0  0  0
  5  6  1  0  0  0  0
  5 24  1  0  0  0  0
  5  4  1  0  0  0  0
  5 30  1  1  0  0  0
  6 17  1  0  0  0  0
  6  7  1  0  0  0  0
  6 31  1  6  0  0  0
  7  9  1  0  0  0  0
  7  8  1  0  0  0  0
  7 32  1  6  0  0  0
  8 33  1  0  0  0  0
  9 11  1  0  0  0  0
  9 10  1  0  0  0  0
  9 34  1  1  0  0  0
 10 35  1  0  0  0  0
 11 12  1  0  0  0  0
 11 36  1  0  0  0  0
 11 37  1  0  0  0  0
 12 13  1  0  0  0  0
 13 14  2  0  0  0  0
 13 15  1  0  0  0  0
 13 16  1  0  0  0  0
 15 38  1  0  0  0  0
 16 39  1  0  0  0  0
 17 18  1  0  0  0  0
 18 19  1  0  0  0  0
 18 20  1  0  0  0  0
 18 23  1  0  0  0  0
 19 40  1  0  0  0  0
 20 21  2  0  0  0  0
 20 22  1  0  0  0  0
 22 41  1  0  0  0  0
 23 24  1  0  0  0  0
 23 42  1  0  0  0  0
 23 43  1  0  0  0  0
 24 25  1  0  0  0  0
 24 44  1  6  0  0  0
 25 45  1  0  0  0  0
M  END
$$$$
