CHEBI:4995
 OpenBabel04242411033D

 31 31  0  0  0  0  0  0  0  0999 V2000
    6.8826    2.5669    2.1878 N   0  0  0  0  0  0  0  0  0  0  0  0
    7.3315    2.7417    0.9257 C   0  0  0  0  0  0  0  0  0  0  0  0
    6.8170    3.5033    0.1249 O   0  0  0  0  0  0  0  0  0  0  0  0
    8.4192    1.9697    0.7218 O   0  0  0  0  0  0  0  0  0  0  0  0
    9.0458    2.0899   -0.5665 C   0  0  0  0  0  0  0  0  0  0  0  0
    9.9267    3.3509   -0.6804 C   0  0  0  0  0  0  0  0  0  0  0  0
   11.1119    3.3469    0.3046 C   0  0  0  0  0  0  0  0  0  0  0  0
   10.6567    3.4398    1.6651 O   0  0  0  0  0  0  0  0  0  0  0  0
   10.9496    2.3929    2.4655 C   0  0  0  0  0  0  0  0  0  0  0  0
   10.4708    2.6214    3.7091 N   0  0  0  0  0  0  0  0  0  0  0  0
   11.5622    1.3831    2.1611 O   0  0  0  0  0  0  0  0  0  0  0  0
   10.4338    3.5436   -2.1025 C   0  0  0  0  0  0  0  0  0  0  0  0
   10.1201    4.7190   -2.8008 C   0  0  0  0  0  0  0  0  0  0  0  0
   10.6085    4.9311   -4.0915 C   0  0  0  0  0  0  0  0  0  0  0  0
   11.4124    3.9708   -4.7016 C   0  0  0  0  0  0  0  0  0  0  0  0
   11.7254    2.7954   -4.0236 C   0  0  0  0  0  0  0  0  0  0  0  0
   11.2401    2.5817   -2.7323 C   0  0  0  0  0  0  0  0  0  0  0  0
    6.0774    3.0865    2.5003 H   0  0  0  0  0  0  0  0  0  0  0  0
    7.3693    1.9349    2.8041 H   0  0  0  0  0  0  0  0  0  0  0  0
    8.2789    2.0650   -1.3521 H   0  0  0  0  0  0  0  0  0  0  0  0
    9.6499    1.1851   -0.6999 H   0  0  0  0  0  0  0  0  0  0  0  0
    9.3002    4.2103   -0.4077 H   0  0  0  0  0  0  0  0  0  0  0  0
   11.7315    4.2360    0.1340 H   0  0  0  0  0  0  0  0  0  0  0  0
   11.7628    2.4810    0.1370 H   0  0  0  0  0  0  0  0  0  0  0  0
   10.0982    3.5320    3.9283 H   0  0  0  0  0  0  0  0  0  0  0  0
   10.7312    1.9809    4.4434 H   0  0  0  0  0  0  0  0  0  0  0  0
    9.4946    5.4831   -2.3429 H   0  0  0  0  0  0  0  0  0  0  0  0
   10.3626    5.8485   -4.6200 H   0  0  0  0  0  0  0  0  0  0  0  0
   11.7950    4.1388   -5.7047 H   0  0  0  0  0  0  0  0  0  0  0  0
   12.3524    2.0451   -4.4987 H   0  0  0  0  0  0  0  0  0  0  0  0
   11.5076    1.6582   -2.2228 H   0  0  0  0  0  0  0  0  0  0  0  0
  1  2  1  0  0  0  0
  1 18  1  0  0  0  0
  1 19  1  0  0  0  0
  2  3  2  0  0  0  0
  2  4  1  0  0  0  0
  4  5  1  0  0  0  0
  5  6  1  0  0  0  0
  5 20  1  0  0  0  0
  5 21  1  0  0  0  0
  6  7  1  0  0  0  0
  6 12  1  0  0  0  0
  6 22  1  0  0  0  0
  7  8  1  0  0  0  0
  7 23  1  0  0  0  0
  7 24  1  0  0  0  0
  8  9  1  0  0  0  0
  9 10  1  0  0  0  0
  9 11  2  0  0  0  0
 10 25  1  0  0  0  0
 10 26  1  0  0  0  0
 12 13  1  0  0  0  0
 12 17  2  0  0  0  0
 13 14  2  0  0  0  0
 13 27  1  0  0  0  0
 14 15  1  0  0  0  0
 14 28  1  0  0  0  0
 15 16  2  0  0  0  0
 15 29  1  0  0  0  0
 16 17  1  0  0  0  0
 16 30  1  0  0  0  0
 17 31  1  0  0  0  0
M  END
$$$$
