CHEBI:17029
 OpenBabel04242415433D

 30 30  0  0  1  0  0  0  0  0999 V2000
    0.5445   -3.2492   -0.2983 H   0  0  0  0  0  0  0  0  0  0  0  0
    1.4809   -2.9893   -0.2633 O   0  0  0  0  0  0  0  0  0  0  0  0
    2.0527   -3.8540    0.7121 C   0  0  2  0  0  0  0  0  0  0  0  0
    1.4182   -3.5623    1.9527 O   0  0  0  0  0  0  0  0  0  0  0  0
    1.9275   -4.3677    3.0240 C   0  0  2  0  0  0  0  0  0  0  0  0
    1.1119   -4.0853    4.2935 C   0  0  0  0  0  0  0  0  0  0  0  0
    1.4311   -4.9885    5.3467 O   0  0  0  0  0  0  0  0  0  0  0  0
    3.4179   -4.0642    3.2445 C   0  0  1  0  0  0  0  0  0  0  0  0
    3.9586   -4.8492    4.3143 O   0  0  0  0  0  0  0  0  0  0  0  0
    4.1952   -4.3476    1.9543 C   0  0  2  0  0  0  0  0  0  0  0  0
    5.5631   -3.9528    2.1582 O   0  0  0  0  0  0  0  0  0  0  0  0
    3.5741   -3.5730    0.7805 C   0  0  1  0  0  0  0  0  0  0  0  0
    4.2729   -3.7993   -0.4961 N   0  0  0  0  0  0  0  0  0  0  0  0
    4.2967   -5.0339   -1.1039 C   0  0  0  0  0  0  0  0  0  0  0  0
    4.8925   -5.0170   -2.4842 C   0  0  0  0  0  0  0  0  0  0  0  0
    3.8963   -6.0581   -0.5639 O   0  0  0  0  0  0  0  0  0  0  0  0
    1.8345   -4.8871    0.4200 H   0  0  0  0  0  0  0  0  0  0  0  0
    1.8002   -5.4308    2.7774 H   0  0  0  0  0  0  0  0  0  0  0  0
    1.2767   -3.0609    4.6456 H   0  0  0  0  0  0  0  0  0  0  0  0
    0.0411   -4.1768    4.0823 H   0  0  0  0  0  0  0  0  0  0  0  0
    2.4091   -5.0748    5.3604 H   0  0  0  0  0  0  0  0  0  0  0  0
    3.5536   -3.0112    3.5227 H   0  0  0  0  0  0  0  0  0  0  0  0
    4.9308   -4.7490    4.2334 H   0  0  0  0  0  0  0  0  0  0  0  0
    4.2133   -5.4280    1.7765 H   0  0  0  0  0  0  0  0  0  0  0  0
    6.0077   -4.0990    1.3012 H   0  0  0  0  0  0  0  0  0  0  0  0
    3.7221   -2.5007    0.9708 H   0  0  0  0  0  0  0  0  0  0  0  0
    4.3252   -2.9925   -1.1080 H   0  0  0  0  0  0  0  0  0  0  0  0
    5.9667   -4.8254   -2.4176 H   0  0  0  0  0  0  0  0  0  0  0  0
    4.4144   -4.2445   -3.0929 H   0  0  0  0  0  0  0  0  0  0  0  0
    4.7302   -5.9862   -2.9642 H   0  0  0  0  0  0  0  0  0  0  0  0
  1  2  1  0  0  0  0
  2  3  1  0  0  0  0
  3  4  1  0  0  0  0
  3 12  1  0  0  0  0
  3 17  1  6  0  0  0
  4  5  1  0  0  0  0
  5  8  1  0  0  0  0
  5  6  1  0  0  0  0
  5 18  1  6  0  0  0
  6  7  1  0  0  0  0
  6 19  1  0  0  0  0
  6 20  1  0  0  0  0
  7 21  1  0  0  0  0
  8  9  1  0  0  0  0
  8 10  1  0  0  0  0
  8 22  1  1  0  0  0
  9 23  1  0  0  0  0
 10 11  1  0  0  0  0
 10 12  1  0  0  0  0
 10 24  1  6  0  0  0
 11 25  1  0  0  0  0
 12 13  1  0  0  0  0
 12 26  1  1  0  0  0
 13 14  1  0  0  0  0
 13 27  1  0  0  0  0
 14 15  1  0  0  0  0
 14 16  2  0  0  0  0
 15 28  1  0  0  0  0
 15 29  1  0  0  0  0
 15 30  1  0  0  0  0
M  END
$$$$
