CHEBI:17344
 OpenBabel04242416213D

 19 18  0  0  0  0  0  0  0  0999 V2000
    5.7795   -2.6575    1.3076 O   0  0  0  0  0  0  0  0  0  0  0  0
    5.5531   -3.1912    0.2354 C   0  0  0  0  0  0  0  0  0  0  0  0
    5.7100   -4.5139    0.0281 O   0  0  0  0  0  0  0  0  0  0  0  0
    5.0954   -2.4939   -0.9865 C   0  0  0  0  0  0  0  0  0  0  0  0
    5.1726   -1.1700   -1.1947 C   0  0  0  0  0  0  0  0  0  0  0  0
    5.6987   -0.1548   -0.3055 C   0  0  0  0  0  0  0  0  0  0  0  0
    6.9423   -0.0330    0.2097 C   0  0  0  0  0  0  0  0  0  0  0  0
    8.0163   -0.9845   -0.1437 C   0  0  0  0  0  0  0  0  0  0  0  0
    8.0721   -1.7213   -1.1127 O   0  0  0  0  0  0  0  0  0  0  0  0
    9.0293   -0.9797    0.7505 O   0  0  0  0  0  0  0  0  0  0  0  0
    7.1303    1.1179    1.1340 C   0  0  0  0  0  0  0  0  0  0  0  0
    6.3716    2.0778    1.1757 O   0  0  0  0  0  0  0  0  0  0  0  0
    8.2101    1.0485    1.9405 O   0  0  0  0  0  0  0  0  0  0  0  0
    5.6127   -4.8030   -0.8972 H   0  0  0  0  0  0  0  0  0  0  0  0
    4.6475   -3.1087   -1.7585 H   0  0  0  0  0  0  0  0  0  0  0  0
    4.7521   -0.7733   -2.1189 H   0  0  0  0  0  0  0  0  0  0  0  0
    4.9481    0.5976   -0.0522 H   0  0  0  0  0  0  0  0  0  0  0  0
    9.6286   -1.6794    0.4004 H   0  0  0  0  0  0  0  0  0  0  0  0
    8.7258    0.2176    1.8261 H   0  0  0  0  0  0  0  0  0  0  0  0
  1  2  2  0  0  0  0
  2  3  1  0  0  0  0
  2  4  1  0  0  0  0
  3 14  1  0  0  0  0
  4  5  2  0  0  0  0
  4 15  1  0  0  0  0
  5  6  1  0  0  0  0
  5 16  1  0  0  0  0
  6  7  2  0  0  0  0
  6 17  1  0  0  0  0
  7  8  1  0  0  0  0
  7 11  1  0  0  0  0
  8  9  2  0  0  0  0
  8 10  1  0  0  0  0
 10 18  1  0  0  0  0
 11 12  2  0  0  0  0
 11 13  1  0  0  0  0
 13 19  1  0  0  0  0
M  END
$$$$
