CHEBI:17795
 OpenBabel04242417363D

 12 11  0  0  0  0  0  0  0  0999 V2000
    1.5339    0.0975   -0.5339 O   0  0  0  0  0  0  0  0  0  0  0  0
    2.7857    0.1711   -0.3044 C   0  0  0  0  0  0  0  0  0  0  0  0
    3.7168    0.7005   -0.9803 O   0  5  0  0  0  0  0  0  0  0  0  0
    3.1878   -0.5197    1.0445 C   0  0  0  0  0  0  0  0  0  0  0  0
    2.1035   -1.0751    1.7241 O   0  0  0  0  0  0  0  0  0  0  0  0
    4.4524   -0.5730    1.5041 C   0  0  0  0  0  0  0  0  0  0  0  0
    5.5081    0.0051    0.7793 O   0  0  0  0  0  0  0  0  0  0  0  0
    4.8268   -1.2689    2.8520 C   0  0  0  0  0  0  0  0  0  0  0  0
    4.8702   -0.5111    3.8728 O   0  0  0  0  0  0  0  0  0  0  0  0
    5.1340   -2.5008    2.7734 O   0  5  0  0  0  0  0  0  0  0  0  0
    1.3634   -0.8531    1.1100 H   0  0  0  0  0  0  0  0  0  0  0  0
    5.0843    0.3898   -0.0277 H   0  0  0  0  0  0  0  0  0  0  0  0
  1  2  2  0  0  0  0
  2  3  1  0  0  0  0
  2  4  1  0  0  0  0
  4  5  1  0  0  0  0
  4  6  2  0  0  0  0
  5 11  1  0  0  0  0
  6  7  1  0  0  0  0
  6  8  1  0  0  0  0
  7 12  1  0  0  0  0
  8  9  2  0  0  0  0
  8 10  1  0  0  0  0
M  CHG  2   3  -1  10  -1
M  END
$$$$
