CHEBI:16161
 OpenBabel04242413573D

166171  0  0  1  0  0  0  0  0999 V2000
    2.3934  -18.9403   31.8937 C   0  0  0  0  0  0  0  0  0  0  0  0
    1.0801  -19.6192   32.3387 C   0  0  0  0  0  0  0  0  0  0  0  0
    1.4598  -20.8864   33.1505 C   0  0  0  0  0  0  0  0  0  0  0  0
    0.3469  -18.7298   33.3546 C   0  0  0  0  0  0  0  0  0  0  0  0
   -0.9471  -19.1194   33.7232 O   0  0  0  0  0  0  0  0  0  0  0  0
   -2.1383  -18.2511   33.1239 P   0  0  0  0  0  0  0  0  0  0  0  0
   -2.1893  -18.1743   31.6433 O   0  0  0  0  0  0  0  0  0  0  0  0
   -3.4198  -19.0674   33.6517 O   0  0  0  0  0  0  0  0  0  0  0  0
   -2.1576  -16.8585   33.8916 O   0  0  0  0  0  0  0  0  0  0  0  0
   -1.4270  -15.4982   33.5056 P   0  0  0  0  0  0  0  0  0  0  0  0
   -1.6374  -14.9674   32.1270 O   0  0  0  0  0  0  0  0  0  0  0  0
   -2.0031  -14.4641   34.5853 O   0  0  0  0  0  0  0  0  0  0  0  0
    0.1251  -15.6377   33.9319 O   0  0  0  0  0  0  0  0  0  0  0  0
    0.9610  -14.4895   33.7787 C   0  0  0  0  0  0  0  0  0  0  0  0
    2.2716  -14.5876   34.5865 C   0  0  1  0  0  0  0  0  0  0  0  0
    1.9528  -15.0048   35.9380 O   0  0  0  0  0  0  0  0  0  0  0  0
    2.4750  -16.3370   36.1435 C   0  0  1  0  0  0  0  0  0  0  0  0
    1.4436  -17.1815   36.7270 N   0  0  0  0  0  0  0  0  0  0  0  0
    0.1248  -16.8698   36.9279 C   0  0  0  0  0  0  0  0  0  0  0  0
   -0.5192  -17.8239   37.5673 N   0  0  0  0  0  0  0  0  0  0  0  0
    0.4282  -18.7994   37.7910 C   0  0  0  0  0  0  0  0  0  0  0  0
    0.3817  -20.0238   38.4782 C   0  0  0  0  0  0  0  0  0  0  0  0
   -0.7529  -20.4813   39.1412 N   0  0  0  0  0  0  0  0  0  0  0  0
    1.5089  -20.7679   38.5421 N   0  0  0  0  0  0  0  0  0  0  0  0
    2.6169  -20.3111   37.9177 C   0  0  0  0  0  0  0  0  0  0  0  0
    2.7842  -19.1559   37.2305 N   0  0  0  0  0  0  0  0  0  0  0  0
    1.6466  -18.4381   37.2374 C   0  0  0  0  0  0  0  0  0  0  0  0
    2.9602  -16.8443   34.7893 C   0  0  2  0  0  0  0  0  0  0  0  0
    4.0141  -17.7958   34.8427 O   0  0  0  0  0  0  0  0  0  0  0  0
    3.3242  -15.5697   34.0651 C   0  0  2  0  0  0  0  0  0  0  0  0
    4.6097  -15.1489   34.5215 O   0  0  0  0  0  0  0  0  0  0  0  0
    5.7207  -14.8377   33.4160 P   0  0  0  0  0  0  0  0  0  0  0  0
    5.3039  -13.9081   32.3321 O   0  0  0  0  0  0  0  0  0  0  0  0
    6.9622  -14.3623   34.2944 O   0  0  0  0  0  0  0  0  0  0  0  0
    6.2360  -16.2529   32.8996 O   0  0  0  0  0  0  0  0  0  0  0  0
    0.2685  -20.0773   31.1008 C   0  0  1  0  0  0  0  0  0  0  0  0
   -1.0263  -20.5815   31.4458 O   0  0  0  0  0  0  0  0  0  0  0  0
    0.1979  -19.3080   29.7597 C   0  0  0  0  0  0  0  0  0  0  0  0
    0.0445  -19.9905   28.7306 O   0  0  0  0  0  0  0  0  0  0  0  0
    0.2119  -17.9832   29.5353 N   0  0  0  0  0  0  0  0  0  0  0  0
    0.0321  -16.7900   30.3355 C   0  0  0  0  0  0  0  0  0  0  0  0
    0.5599  -15.5104   29.7182 C   0  0  0  0  0  0  0  0  0  0  0  0
    1.8138  -15.7568   28.9534 C   0  0  0  0  0  0  0  0  0  0  0  0
    2.9064  -15.7026   29.5285 O   0  0  0  0  0  0  0  0  0  0  0  0
    1.7733  -16.0823   27.6352 N   0  0  0  0  0  0  0  0  0  0  0  0
    0.7205  -16.4816   26.6778 C   0  0  0  0  0  0  0  0  0  0  0  0
   -0.6714  -15.7970   26.6568 C   0  0  0  0  0  0  0  0  0  0  0  0
   -2.2163  -16.8556   26.5834 S   0  0  0  0  0  0  0  0  0  0  0  0
   -2.7633  -17.5185   28.4615 S   0  0  0  0  0  0  0  0  0  0  0  0
   -4.1412  -16.4588   29.1393 C   0  0  0  0  0  0  0  0  0  0  0  0
   -4.4019  -16.7321   30.6617 C   0  0  0  0  0  0  0  0  0  0  0  0
   -5.5332  -16.0034   31.2622 N   0  0  0  0  0  0  0  0  0  0  0  0
   -5.6699  -15.7107   32.6001 C   0  0  0  0  0  0  0  0  0  0  0  0
   -5.8692  -14.5223   32.8782 O   0  0  0  0  0  0  0  0  0  0  0  0
   -5.5076  -16.7256   33.7351 C   0  0  0  0  0  0  0  0  0  0  0  0
   -6.5435  -17.8465   33.8595 C   0  0  0  0  0  0  0  0  0  0  0  0
   -6.2134  -18.8822   34.8707 N   0  0  0  0  0  0  0  0  0  0  0  0
   -7.2161  -19.6352   35.4984 C   0  0  0  0  0  0  0  0  0  0  0  0
   -8.4002  -19.3488   35.3472 O   0  0  0  0  0  0  0  0  0  0  0  0
   -6.7186  -20.8654   36.3600 C   0  0  2  0  0  0  0  0  0  0  0  0
   -6.4405  -22.0014   35.5372 O   0  0  0  0  0  0  0  0  0  0  0  0
   -7.6178  -21.3344   37.5592 C   0  0  0  0  0  0  0  0  0  0  0  0
   -6.8279  -22.3732   38.4164 C   0  0  0  0  0  0  0  0  0  0  0  0
   -7.9225  -20.1389   38.4812 C   0  0  0  0  0  0  0  0  0  0  0  0
   -8.9270  -22.0877   37.2018 C   0  0  0  0  0  0  0  0  0  0  0  0
   -9.7806  -21.4733   36.2728 O   0  0  0  0  0  0  0  0  0  0  0  0
  -11.2927  -21.9893   36.1180 P   0  0  0  0  0  0  0  0  0  0  0  0
  -11.9350  -21.6489   34.8121 O   0  0  0  0  0  0  0  0  0  0  0  0
  -12.0617  -21.2159   37.3034 O   0  0  0  0  0  0  0  0  0  0  0  0
  -11.3913  -23.5204   36.5258 O   0  0  0  0  0  0  0  0  0  0  0  0
  -11.7060  -24.1556   37.9446 P   0  0  0  0  0  0  0  0  0  0  0  0
  -10.6305  -24.0718   38.9781 O   0  0  0  0  0  0  0  0  0  0  0  0
  -13.0712  -23.4607   38.4059 O   0  0  0  0  0  0  0  0  0  0  0  0
  -12.1966  -25.6454   37.6119 O   0  0  0  0  0  0  0  0  0  0  0  0
  -11.3824  -26.7560   37.9545 C   0  0  0  0  0  0  0  0  0  0  0  0
  -12.1772  -27.7278   38.8527 C   0  0  1  0  0  0  0  0  0  0  0  0
  -13.2376  -28.3048   38.0621 O   0  0  0  0  0  0  0  0  0  0  0  0
  -12.9193  -29.6751   37.7533 C   0  0  1  0  0  0  0  0  0  0  0  0
  -13.2734  -30.0145   36.3871 N   0  0  0  0  0  0  0  0  0  0  0  0
  -13.0954  -31.2679   35.8467 C   0  0  0  0  0  0  0  0  0  0  0  0
  -13.7157  -31.4075   34.6953 N   0  0  0  0  0  0  0  0  0  0  0  0
  -14.3406  -30.1947   34.4899 C   0  0  0  0  0  0  0  0  0  0  0  0
  -15.2073  -29.7379   33.4825 C   0  0  0  0  0  0  0  0  0  0  0  0
  -15.6449  -30.5412   32.4366 N   0  0  0  0  0  0  0  0  0  0  0  0
  -15.6420  -28.4592   33.5281 N   0  0  0  0  0  0  0  0  0  0  0  0
  -15.2454  -27.6891   34.5637 C   0  0  0  0  0  0  0  0  0  0  0  0
  -14.4463  -28.0249   35.5895 N   0  0  0  0  0  0  0  0  0  0  0  0
  -14.0332  -29.2982   35.5014 C   0  0  0  0  0  0  0  0  0  0  0  0
  -11.4401  -29.8446   38.1054 C   0  0  2  0  0  0  0  0  0  0  0  0
  -11.0759  -31.1922   38.3938 O   0  0  0  0  0  0  0  0  0  0  0  0
  -11.3330  -28.9157   39.3157 C   0  0  2  0  0  0  0  0  0  0  0  0
  -11.7842  -29.6468   40.4557 O   0  0  0  0  0  0  0  0  0  0  0  0
  -13.1383  -29.3824   41.2557 P   0  0  0  0  0  0  0  0  0  0  0  0
  -14.4067  -29.2295   40.5016 O   0  0  0  0  0  0  0  0  0  0  0  0
  -13.1943  -30.6388   42.2397 O   0  0  0  0  0  0  0  0  0  0  0  0
  -12.8051  -28.1996   42.2669 O   0  0  0  0  0  0  0  0  0  0  0  0
    2.8036  -19.4100   30.9942 H   0  0  0  0  0  0  0  0  0  0  0  0
    2.2621  -17.8780   31.6727 H   0  0  0  0  0  0  0  0  0  0  0  0
    3.1602  -19.0014   32.6701 H   0  0  0  0  0  0  0  0  0  0  0  0
    0.5669  -21.4318   33.4753 H   0  0  0  0  0  0  0  0  0  0  0  0
    2.0258  -20.6198   34.0524 H   0  0  0  0  0  0  0  0  0  0  0  0
    2.0874  -21.5632   32.5639 H   0  0  0  0  0  0  0  0  0  0  0  0
    0.3264  -17.7058   33.0127 H   0  0  0  0  0  0  0  0  0  0  0  0
    0.8891  -18.7274   34.2989 H   0  0  0  0  0  0  0  0  0  0  0  0
   -3.6045  -19.7491   32.9725 H   0  0  0  0  0  0  0  0  0  0  0  0
   -2.7613  -13.9595   34.2248 H   0  0  0  0  0  0  0  0  0  0  0  0
    0.4072  -13.6145   34.1357 H   0  0  0  0  0  0  0  0  0  0  0  0
    1.1810  -14.3415   32.7177 H   0  0  0  0  0  0  0  0  0  0  0  0
    2.7075  -13.5841   34.6503 H   0  0  0  0  0  0  0  0  0  0  0  0
    3.2893  -16.2792   36.8745 H   0  0  0  0  0  0  0  0  0  0  0  0
   -0.3114  -15.9324   36.6052 H   0  0  0  0  0  0  0  0  0  0  0  0
   -1.4033  -19.7334   39.3600 H   0  0  0  0  0  0  0  0  0  0  0  0
   -0.5112  -21.1110   39.8961 H   0  0  0  0  0  0  0  0  0  0  0  0
    3.4893  -20.9565   37.9870 H   0  0  0  0  0  0  0  0  0  0  0  0
    2.1508  -17.2881   34.2313 H   0  0  0  0  0  0  0  0  0  0  0  0
    3.7492  -18.5111   35.4579 H   0  0  0  0  0  0  0  0  0  0  0  0
    3.3218  -15.6824   32.9754 H   0  0  0  0  0  0  0  0  0  0  0  0
    7.1438  -15.0054   35.0028 H   0  0  0  0  0  0  0  0  0  0  0  0
    6.7489  -16.1564   32.0752 H   0  0  0  0  0  0  0  0  0  0  0  0
    0.8079  -20.9787   30.7692 H   0  0  0  0  0  0  0  0  0  0  0  0
   -1.4295  -20.8476   30.5947 H   0  0  0  0  0  0  0  0  0  0  0  0
   -0.0784  -17.8670   28.5738 H   0  0  0  0  0  0  0  0  0  0  0  0
    0.4739  -16.9236   31.3073 H   0  0  0  0  0  0  0  0  0  0  0  0
   -1.0346  -16.6429   30.4696 H   0  0  0  0  0  0  0  0  0  0  0  0
    0.7708  -14.7743   30.5028 H   0  0  0  0  0  0  0  0  0  0  0  0
   -0.1869  -15.0182   29.1072 H   0  0  0  0  0  0  0  0  0  0  0  0
    2.7147  -16.3345   27.3451 H   0  0  0  0  0  0  0  0  0  0  0  0
    0.6673  -17.5746   26.6713 H   0  0  0  0  0  0  0  0  0  0  0  0
    1.2009  -16.2205   25.7227 H   0  0  0  0  0  0  0  0  0  0  0  0
   -0.7156  -15.3019   25.6780 H   0  0  0  0  0  0  0  0  0  0  0  0
   -0.8087  -14.9810   27.3574 H   0  0  0  0  0  0  0  0  0  0  0  0
   -5.0489  -16.6686   28.5653 H   0  0  0  0  0  0  0  0  0  0  0  0
   -3.8680  -15.4088   28.9987 H   0  0  0  0  0  0  0  0  0  0  0  0
   -3.5298  -16.3895   31.2158 H   0  0  0  0  0  0  0  0  0  0  0  0
   -4.5744  -17.7963   30.8508 H   0  0  0  0  0  0  0  0  0  0  0  0
   -5.7355  -15.1453   30.7602 H   0  0  0  0  0  0  0  0  0  0  0  0
   -5.5353  -16.1505   34.6736 H   0  0  0  0  0  0  0  0  0  0  0  0
   -4.5032  -17.1118   33.6834 H   0  0  0  0  0  0  0  0  0  0  0  0
   -6.6600  -18.3708   32.9075 H   0  0  0  0  0  0  0  0  0  0  0  0
   -7.5147  -17.4101   34.1181 H   0  0  0  0  0  0  0  0  0  0  0  0
   -5.2435  -19.1770   34.9459 H   0  0  0  0  0  0  0  0  0  0  0  0
   -5.7541  -20.5581   36.7886 H   0  0  0  0  0  0  0  0  0  0  0  0
   -5.7414  -21.7478   34.9133 H   0  0  0  0  0  0  0  0  0  0  0  0
   -6.6279  -23.2925   37.8521 H   0  0  0  0  0  0  0  0  0  0  0  0
   -7.4034  -22.6671   39.3051 H   0  0  0  0  0  0  0  0  0  0  0  0
   -5.8691  -21.9761   38.7622 H   0  0  0  0  0  0  0  0  0  0  0  0
   -6.9959  -19.7253   38.8966 H   0  0  0  0  0  0  0  0  0  0  0  0
   -8.5477  -20.4405   39.3304 H   0  0  0  0  0  0  0  0  0  0  0  0
   -8.4487  -19.3371   37.9582 H   0  0  0  0  0  0  0  0  0  0  0  0
   -9.4920  -22.2071   38.1293 H   0  0  0  0  0  0  0  0  0  0  0  0
   -8.7008  -23.0893   36.8185 H   0  0  0  0  0  0  0  0  0  0  0  0
  -12.4961  -20.4384   36.8911 H   0  0  0  0  0  0  0  0  0  0  0  0
  -12.9103  -22.5408   38.6966 H   0  0  0  0  0  0  0  0  0  0  0  0
  -10.4675  -26.4364   38.4620 H   0  0  0  0  0  0  0  0  0  0  0  0
  -11.0951  -27.2320   37.0120 H   0  0  0  0  0  0  0  0  0  0  0  0
  -12.6355  -27.1739   39.6770 H   0  0  0  0  0  0  0  0  0  0  0  0
  -13.5451  -30.3248   38.3765 H   0  0  0  0  0  0  0  0  0  0  0  0
  -12.5312  -32.0437   36.3510 H   0  0  0  0  0  0  0  0  0  0  0  0
  -15.0446  -31.3397   32.2675 H   0  0  0  0  0  0  0  0  0  0  0  0
  -15.9512  -29.9943   31.6439 H   0  0  0  0  0  0  0  0  0  0  0  0
  -15.6224  -26.6706   34.5720 H   0  0  0  0  0  0  0  0  0  0  0  0
  -10.7983  -29.4900   37.2907 H   0  0  0  0  0  0  0  0  0  0  0  0
  -10.3100  -31.1706   38.9973 H   0  0  0  0  0  0  0  0  0  0  0  0
  -10.2963  -28.6364   39.5268 H   0  0  0  0  0  0  0  0  0  0  0  0
  -13.6480  -31.3875   41.8083 H   0  0  0  0  0  0  0  0  0  0  0  0
  -13.5697  -28.0167   42.8434 H   0  0  0  0  0  0  0  0  0  0  0  0
  1  2  1  0  0  0  0
  1 97  1  0  0  0  0
  1 98  1  0  0  0  0
  1 99  1  0  0  0  0
  2  3  1  0  0  0  0
  2  4  1  0  0  0  0
  2 36  1  0  0  0  0
  3100  1  0  0  0  0
  3101  1  0  0  0  0
  3102  1  0  0  0  0
  4  5  1  0  0  0  0
  4103  1  0  0  0  0
  4104  1  0  0  0  0
  5  6  1  0  0  0  0
  6  7  2  0  0  0  0
  6  8  1  0  0  0  0
  6  9  1  0  0  0  0
  8105  1  0  0  0  0
  9 10  1  0  0  0  0
 10 11  2  0  0  0  0
 10 12  1  0  0  0  0
 10 13  1  0  0  0  0
 12106  1  0  0  0  0
 13 14  1  0  0  0  0
 14107  1  0  0  0  0
 14108  1  0  0  0  0
 15 16  1  0  0  0  0
 15 30  1  0  0  0  0
 15 14  1  0  0  0  0
 15109  1  1  0  0  0
 16 17  1  0  0  0  0
 17 28  1  0  0  0  0
 17 18  1  0  0  0  0
 17110  1  1  0  0  0
 18 19  1  0  0  0  0
 18 27  1  0  0  0  0
 19 20  2  0  0  0  0
 19111  1  0  0  0  0
 20 21  1  0  0  0  0
 21 22  1  0  0  0  0
 21 27  2  0  0  0  0
 22 23  1  0  0  0  0
 22 24  2  0  0  0  0
 23112  1  0  0  0  0
 23113  1  0  0  0  0
 24 25  1  0  0  0  0
 25 26  2  0  0  0  0
 25114  1  0  0  0  0
 26 27  1  0  0  0  0
 28 29  1  0  0  0  0
 28 30  1  0  0  0  0
 28115  1  6  0  0  0
 29116  1  0  0  0  0
 30 31  1  0  0  0  0
 30117  1  6  0  0  0
 31 32  1  0  0  0  0
 32 33  2  0  0  0  0
 32 34  1  0  0  0  0
 32 35  1  0  0  0  0
 34118  1  0  0  0  0
 35119  1  0  0  0  0
 36 37  1  0  0  0  0
 36 38  1  0  0  0  0
 36120  1  6  0  0  0
 37121  1  0  0  0  0
 38 39  2  0  0  0  0
 38 40  1  0  0  0  0
 40 41  1  0  0  0  0
 40122  1  0  0  0  0
 41 42  1  0  0  0  0
 41123  1  0  0  0  0
 41124  1  0  0  0  0
 42 43  1  0  0  0  0
 42125  1  0  0  0  0
 42126  1  0  0  0  0
 43 44  2  0  0  0  0
 43 45  1  0  0  0  0
 45 46  1  0  0  0  0
 45127  1  0  0  0  0
 46 47  1  0  0  0  0
 46128  1  0  0  0  0
 46129  1  0  0  0  0
 47 48  1  0  0  0  0
 47130  1  0  0  0  0
 47131  1  0  0  0  0
 48 49  1  0  0  0  0
 49 50  1  0  0  0  0
 50 51  1  0  0  0  0
 50132  1  0  0  0  0
 50133  1  0  0  0  0
 51 52  1  0  0  0  0
 51134  1  0  0  0  0
 51135  1  0  0  0  0
 52 53  1  0  0  0  0
 52136  1  0  0  0  0
 53 54  2  0  0  0  0
 53 55  1  0  0  0  0
 55 56  1  0  0  0  0
 55137  1  0  0  0  0
 55138  1  0  0  0  0
 56 57  1  0  0  0  0
 56139  1  0  0  0  0
 56140  1  0  0  0  0
 57 58  1  0  0  0  0
 57141  1  0  0  0  0
 58 59  2  0  0  0  0
 60 62  1  0  0  0  0
 60 61  1  0  0  0  0
 60 58  1  0  0  0  0
 60142  1  1  0  0  0
 61143  1  0  0  0  0
 62 63  1  0  0  0  0
 62 64  1  0  0  0  0
 62 65  1  0  0  0  0
 63144  1  0  0  0  0
 63145  1  0  0  0  0
 63146  1  0  0  0  0
 64147  1  0  0  0  0
 64148  1  0  0  0  0
 64149  1  0  0  0  0
 65 66  1  0  0  0  0
 65150  1  0  0  0  0
 65151  1  0  0  0  0
 66 67  1  0  0  0  0
 67 68  2  0  0  0  0
 67 69  1  0  0  0  0
 67 70  1  0  0  0  0
 69152  1  0  0  0  0
 70 71  1  0  0  0  0
 71 72  2  0  0  0  0
 71 73  1  0  0  0  0
 71 74  1  0  0  0  0
 73153  1  0  0  0  0
 74 75  1  0  0  0  0
 75154  1  0  0  0  0
 75155  1  0  0  0  0
 76 77  1  0  0  0  0
 76 91  1  0  0  0  0
 76 75  1  0  0  0  0
 76156  1  1  0  0  0
 77 78  1  0  0  0  0
 78 89  1  0  0  0  0
 78 79  1  0  0  0  0
 78157  1  1  0  0  0
 79 80  1  0  0  0  0
 79 88  1  0  0  0  0
 80 81  2  0  0  0  0
 80158  1  0  0  0  0
 81 82  1  0  0  0  0
 82 83  1  0  0  0  0
 82 88  2  0  0  0  0
 83 84  1  0  0  0  0
 83 85  2  0  0  0  0
 84159  1  0  0  0  0
 84160  1  0  0  0  0
 85 86  1  0  0  0  0
 86 87  2  0  0  0  0
 86161  1  0  0  0  0
 87 88  1  0  0  0  0
 89 90  1  0  0  0  0
 89 91  1  0  0  0  0
 89162  1  6  0  0  0
 90163  1  0  0  0  0
 91 92  1  0  0  0  0
 91164  1  1  0  0  0
 92 93  1  0  0  0  0
 93 94  2  0  0  0  0
 93 95  1  0  0  0  0
 93 96  1  0  0  0  0
 95165  1  0  0  0  0
 96166  1  0  0  0  0
M  END
$$$$
