CHEBI:18200
 OpenBabel04242423463D

 55 58  0  0  1  0  0  0  0  0999 V2000
   10.3166   18.5462    8.1277 C   0  0  0  0  0  0  0  0  0  0  0  0
    9.8765   17.2686    7.6837 O   0  0  0  0  0  0  0  0  0  0  0  0
   10.8331   16.4407    7.1592 C   0  0  0  0  0  0  0  0  0  0  0  0
   10.3269   15.5161    6.2339 C   0  0  0  0  0  0  0  0  0  0  0  0
   11.1596   14.5935    5.5801 C   0  0  0  0  0  0  0  0  0  0  0  0
   10.6300   13.6318    4.5869 C   0  0  0  0  0  0  0  0  0  0  0  0
    9.6158   13.9436    3.7661 C   0  0  0  0  0  0  0  0  0  0  0  0
    9.1371   12.9412    2.8045 C   0  0  0  0  0  0  0  0  0  0  0  0
    8.2092   13.1806    2.0386 O   0  0  0  0  0  0  0  0  0  0  0  0
    9.8146   11.6390    2.7961 C   0  0  0  0  0  0  0  0  0  0  0  0
    9.4249   10.6082    1.9250 C   0  0  0  0  0  0  0  0  0  0  0  0
    8.3717   10.7652    1.0581 O   0  0  0  0  0  0  0  0  0  0  0  0
   10.0984    9.3748    1.9230 C   0  0  0  0  0  0  0  0  0  0  0  0
    9.7198    8.2945    0.9212 C   0  0  2  0  0  0  0  0  0  0  0  0
    9.8707    7.0122    1.5793 O   0  0  0  0  0  0  0  0  0  0  0  0
    9.4345    5.9166    0.7507 C   0  0  2  0  0  0  0  0  0  0  0  0
    9.5061    4.6325    1.5879 C   0  0  0  0  0  0  0  0  0  0  0  0
   10.8271    4.4232    2.0902 O   0  0  0  0  0  0  0  0  0  0  0  0
   10.3086    5.8238   -0.5072 C   0  0  1  0  0  0  0  0  0  0  0  0
    9.8288    4.8014   -1.3846 O   0  0  0  0  0  0  0  0  0  0  0  0
   10.2887    7.1602   -1.2529 C   0  0  2  0  0  0  0  0  0  0  0  0
   11.2192    7.1185   -2.3525 O   0  0  0  0  0  0  0  0  0  0  0  0
   10.6183    8.3444   -0.3368 C   0  0  1  0  0  0  0  0  0  0  0  0
   10.4475    9.5524   -1.0860 O   0  0  0  0  0  0  0  0  0  0  0  0
   11.1589    9.2165    2.8326 C   0  0  0  0  0  0  0  0  0  0  0  0
   11.8532    8.0412    2.9288 O   0  0  0  0  0  0  0  0  0  0  0  0
   11.5498   10.2360    3.6991 C   0  0  0  0  0  0  0  0  0  0  0  0
   10.8712   11.4500    3.6814 C   0  0  0  0  0  0  0  0  0  0  0  0
   11.2894   12.4107    4.5677 O   0  0  0  0  0  0  0  0  0  0  0  0
   12.5215   14.5883    5.9120 C   0  0  0  0  0  0  0  0  0  0  0  0
   13.0352   15.4843    6.8550 C   0  0  0  0  0  0  0  0  0  0  0  0
   12.1928   16.4071    7.4778 C   0  0  0  0  0  0  0  0  0  0  0  0
   12.7202   17.2490    8.4160 O   0  0  0  0  0  0  0  0  0  0  0  0
    9.4373   19.1962    8.1810 H   0  0  0  0  0  0  0  0  0  0  0  0
   11.0197   19.0072    7.4253 H   0  0  0  0  0  0  0  0  0  0  0  0
   10.7345   18.4837    9.1365 H   0  0  0  0  0  0  0  0  0  0  0  0
    9.2572   15.5346    6.0353 H   0  0  0  0  0  0  0  0  0  0  0  0
    9.1136   14.9019    3.7522 H   0  0  0  0  0  0  0  0  0  0  0  0
    8.0426   11.6904    1.1269 H   0  0  0  0  0  0  0  0  0  0  0  0
    8.6628    8.4034    0.6487 H   0  0  0  0  0  0  0  0  0  0  0  0
    8.3836    6.0700    0.4723 H   0  0  0  0  0  0  0  0  0  0  0  0
    8.8354    4.7016    2.4514 H   0  0  0  0  0  0  0  0  0  0  0  0
    9.2176    3.7557    1.0007 H   0  0  0  0  0  0  0  0  0  0  0  0
   10.9409    5.0401    2.8344 H   0  0  0  0  0  0  0  0  0  0  0  0
   11.3439    5.5736   -0.2455 H   0  0  0  0  0  0  0  0  0  0  0  0
   10.2868    4.9306   -2.2384 H   0  0  0  0  0  0  0  0  0  0  0  0
    9.3070    7.3120   -1.7192 H   0  0  0  0  0  0  0  0  0  0  0  0
   12.1162    7.0015   -1.9884 H   0  0  0  0  0  0  0  0  0  0  0  0
   11.6776    8.2942   -0.0555 H   0  0  0  0  0  0  0  0  0  0  0  0
   10.7808    9.3787   -1.9874 H   0  0  0  0  0  0  0  0  0  0  0  0
   11.2807    7.3547    2.5300 H   0  0  0  0  0  0  0  0  0  0  0  0
   12.3726   10.0746    4.3900 H   0  0  0  0  0  0  0  0  0  0  0  0
   13.2023   13.8841    5.4372 H   0  0  0  0  0  0  0  0  0  0  0  0
   14.0949   15.4435    7.0899 H   0  0  0  0  0  0  0  0  0  0  0  0
   13.6500   17.0146    8.5683 H   0  0  0  0  0  0  0  0  0  0  0  0
  1  2  1  0  0  0  0
  1 34  1  0  0  0  0
  1 35  1  0  0  0  0
  1 36  1  0  0  0  0
  2  3  1  0  0  0  0
  3  4  1  0  0  0  0
  3 32  2  0  0  0  0
  4  5  2  0  0  0  0
  4 37  1  0  0  0  0
  5  6  1  0  0  0  0
  5 30  1  0  0  0  0
  6  7  2  0  0  0  0
  6 29  1  0  0  0  0
  7  8  1  0  0  0  0
  7 38  1  0  0  0  0
  8  9  2  0  0  0  0
  8 10  1  0  0  0  0
 10 11  1  0  0  0  0
 10 28  2  0  0  0  0
 11 12  1  0  0  0  0
 11 13  2  0  0  0  0
 12 39  1  0  0  0  0
 13 25  1  0  0  0  0
 14 15  1  0  0  0  0
 14 23  1  0  0  0  0
 14 13  1  0  0  0  0
 14 40  1  6  0  0  0
 15 16  1  0  0  0  0
 16 19  1  0  0  0  0
 16 17  1  0  0  0  0
 16 41  1  6  0  0  0
 17 18  1  0  0  0  0
 17 42  1  0  0  0  0
 17 43  1  0  0  0  0
 18 44  1  0  0  0  0
 19 20  1  0  0  0  0
 19 21  1  0  0  0  0
 19 45  1  1  0  0  0
 20 46  1  0  0  0  0
 21 22  1  0  0  0  0
 21 23  1  0  0  0  0
 21 47  1  6  0  0  0
 22 48  1  0  0  0  0
 23 24  1  0  0  0  0
 23 49  1  1  0  0  0
 24 50  1  0  0  0  0
 25 26  1  0  0  0  0
 25 27  2  0  0  0  0
 26 51  1  0  0  0  0
 27 28  1  0  0  0  0
 27 52  1  0  0  0  0
 28 29  1  0  0  0  0
 30 31  2  0  0  0  0
 30 53  1  0  0  0  0
 31 32  1  0  0  0  0
 31 54  1  0  0  0  0
 32 33  1  0  0  0  0
 33 55  1  0  0  0  0
M  END
$$$$
