CHEBI:16780
 OpenBabel04242415133D

 40 39  0  0  0  0  0  0  0  0999 V2000
    3.9566    6.5670   -3.0434 N   0  0  0  0  0  0  0  0  0  0  0  0
    3.7472    5.2567   -3.6521 C   0  0  0  0  0  0  0  0  0  0  0  0
    4.5618    4.1731   -2.9428 C   0  0  0  0  0  0  0  0  0  0  0  0
    4.0964    3.9149   -1.5055 C   0  0  0  0  0  0  0  0  0  0  0  0
    4.8619    2.7817   -0.8098 C   0  0  0  0  0  0  0  0  0  0  0  0
    6.3687    3.0044   -0.7014 C   0  0  0  0  0  0  0  0  0  0  0  0
    6.7415    4.2038    0.1536 C   0  0  0  0  0  0  0  0  0  0  0  0
    6.1336    4.5127    1.1732 O   0  0  0  0  0  0  0  0  0  0  0  0
    7.8850    4.8319   -0.2852 N   0  0  0  0  0  0  0  0  0  0  0  0
    8.3924    6.0595    0.2935 C   0  0  0  0  0  0  0  0  0  0  0  0
    8.5035    7.1739   -0.7491 C   0  0  0  0  0  0  0  0  0  0  0  0
    9.5509    6.8653   -1.8267 C   0  0  0  0  0  0  0  0  0  0  0  0
    9.7509    7.9965   -2.8410 C   0  0  0  0  0  0  0  0  0  0  0  0
    8.4920    8.4106   -3.5980 C   0  0  0  0  0  0  0  0  0  0  0  0
    7.8267    7.2409   -4.3222 C   0  0  0  0  0  0  0  0  0  0  0  0
    8.5344    6.6658   -5.1943 O   0  0  0  0  0  0  0  0  0  0  0  0
    6.6448    6.9875   -3.9503 O   0  5  0  0  0  0  0  0  0  0  0  0
    3.5581    7.2767   -3.6550 H   0  0  0  0  0  0  0  0  0  0  0  0
    4.9806    6.7638   -3.1468 H   0  0  0  0  0  0  0  0  0  0  0  0
    4.0511    5.3025   -4.7039 H   0  0  0  0  0  0  0  0  0  0  0  0
    2.6808    5.0083   -3.6293 H   0  0  0  0  0  0  0  0  0  0  0  0
    5.6186    4.4623   -2.9538 H   0  0  0  0  0  0  0  0  0  0  0  0
    4.4834    3.2434   -3.5192 H   0  0  0  0  0  0  0  0  0  0  0  0
    3.0324    3.6462   -1.5203 H   0  0  0  0  0  0  0  0  0  0  0  0
    4.1780    4.8305   -0.9093 H   0  0  0  0  0  0  0  0  0  0  0  0
    4.6877    1.8470   -1.3572 H   0  0  0  0  0  0  0  0  0  0  0  0
    4.4383    2.6394    0.1918 H   0  0  0  0  0  0  0  0  0  0  0  0
    6.8146    3.0847   -1.6979 H   0  0  0  0  0  0  0  0  0  0  0  0
    6.8272    2.1284   -0.2266 H   0  0  0  0  0  0  0  0  0  0  0  0
    8.2623    4.5529   -1.1825 H   0  0  0  0  0  0  0  0  0  0  0  0
    9.3757    5.8351    0.7202 H   0  0  0  0  0  0  0  0  0  0  0  0
    7.7388    6.3857    1.1093 H   0  0  0  0  0  0  0  0  0  0  0  0
    8.7779    8.1061   -0.2413 H   0  0  0  0  0  0  0  0  0  0  0  0
    7.5205    7.3290   -1.2070 H   0  0  0  0  0  0  0  0  0  0  0  0
    9.2832    5.9509   -2.3670 H   0  0  0  0  0  0  0  0  0  0  0  0
   10.5148    6.6642   -1.3426 H   0  0  0  0  0  0  0  0  0  0  0  0
   10.5185    7.6795   -3.5584 H   0  0  0  0  0  0  0  0  0  0  0  0
   10.1564    8.8748   -2.3244 H   0  0  0  0  0  0  0  0  0  0  0  0
    8.7553    9.1660   -4.3484 H   0  0  0  0  0  0  0  0  0  0  0  0
    7.7782    8.8884   -2.9176 H   0  0  0  0  0  0  0  0  0  0  0  0
  1  2  1  0  0  0  0
  1 18  1  0  0  0  0
  1 19  1  0  0  0  0
  2  3  1  0  0  0  0
  2 20  1  0  0  0  0
  2 21  1  0  0  0  0
  3  4  1  0  0  0  0
  3 22  1  0  0  0  0
  3 23  1  0  0  0  0
  4  5  1  0  0  0  0
  4 24  1  0  0  0  0
  4 25  1  0  0  0  0
  5  6  1  0  0  0  0
  5 26  1  0  0  0  0
  5 27  1  0  0  0  0
  6  7  1  0  0  0  0
  6 28  1  0  0  0  0
  6 29  1  0  0  0  0
  7  8  2  0  0  0  0
  7  9  1  0  0  0  0
  9 10  1  0  0  0  0
  9 30  1  0  0  0  0
 10 11  1  0  0  0  0
 10 31  1  0  0  0  0
 10 32  1  0  0  0  0
 11 12  1  0  0  0  0
 11 33  1  0  0  0  0
 11 34  1  0  0  0  0
 12 13  1  0  0  0  0
 12 35  1  0  0  0  0
 12 36  1  0  0  0  0
 13 14  1  0  0  0  0
 13 37  1  0  0  0  0
 13 38  1  0  0  0  0
 14 15  1  0  0  0  0
 14 39  1  0  0  0  0
 14 40  1  0  0  0  0
 15 16  2  0  0  0  0
 15 17  1  0  0  0  0
M  CHG  1  17  -1
M  END
$$$$
