CHEBI:17222
 OpenBabel04242416033D

 92 95  0  0  1  0  0  0  0  0999 V2000
   -1.1349   -3.9523    6.4372 C   0  0  0  0  0  0  0  0  0  0  0  0
   -2.2414   -3.8307    7.4378 C   0  0  0  0  0  0  0  0  0  0  0  0
   -3.3592   -3.4503    7.0849 O   0  0  0  0  0  0  0  0  0  0  0  0
   -2.0535   -4.1050    8.7500 N   0  0  0  0  0  0  0  0  0  0  0  0
   -0.9182   -4.4745    9.6158 C   0  0  1  0  0  0  0  0  0  0  0  0
   -0.0518   -5.6699    9.1539 C   0  0  0  0  0  0  0  0  0  0  0  0
    0.2534   -6.4275   10.3285 O   0  0  0  0  0  0  0  0  0  0  0  0
   -0.8033   -7.5494   10.8134 P   0  0  0  0  0  0  0  0  0  0  0  0
   -0.9596   -8.7039    9.8858 O   0  0  0  0  0  0  0  0  0  0  0  0
   -0.1618   -7.9966   12.2162 O   0  0  0  0  0  0  0  0  0  0  0  0
   -2.1390   -6.8070   11.2501 O   0  0  0  0  0  0  0  0  0  0  0  0
   -3.2214   -7.3081   12.2996 P   0  0  0  0  0  0  0  0  0  0  0  0
   -3.4292   -8.7812   12.3827 O   0  0  0  0  0  0  0  0  0  0  0  0
   -2.6681   -6.7383   13.7025 O   0  0  0  0  0  0  0  0  0  0  0  0
   -4.5579   -6.4542   12.0340 O   0  0  0  0  0  0  0  0  0  0  0  0
   -5.0538   -5.4073   12.8751 C   0  0  0  0  0  0  0  0  0  0  0  0
   -4.5929   -4.0463   12.3589 C   0  0  1  0  0  0  0  0  0  0  0  0
   -5.4173   -2.8832   12.6968 O   0  0  0  0  0  0  0  0  0  0  0  0
   -4.6072   -1.7294   12.2533 C   0  0  1  0  0  0  0  0  0  0  0  0
   -4.7137   -0.5284   13.0830 N   0  0  0  0  0  0  0  0  0  0  0  0
   -5.7893   -0.3032   13.9116 C   0  0  0  0  0  0  0  0  0  0  0  0
   -5.9054    0.8304   14.6147 C   0  0  0  0  0  0  0  0  0  0  0  0
   -4.8406    1.8415   14.5292 C   0  0  0  0  0  0  0  0  0  0  0  0
   -4.8831    2.8760   15.1959 O   0  0  0  0  0  0  0  0  0  0  0  0
   -3.8364    1.5706   13.6602 N   0  0  0  0  0  0  0  0  0  0  0  0
   -3.7843    0.4919   12.8191 C   0  0  0  0  0  0  0  0  0  0  0  0
   -2.9463    0.4656   11.9317 O   0  0  0  0  0  0  0  0  0  0  0  0
   -3.1665   -2.2649   12.2094 C   0  0  2  0  0  0  0  0  0  0  0  0
   -2.8225   -2.4504   10.8338 O   0  0  0  0  0  0  0  0  0  0  0  0
   -3.2658   -3.5914   12.9291 C   0  0  2  0  0  0  0  0  0  0  0  0
   -2.1288   -4.4095   12.7261 O   0  0  0  0  0  0  0  0  0  0  0  0
    1.1579   -5.2926    8.4547 O   0  0  0  0  0  0  0  0  0  0  0  0
    1.5854   -3.9340    8.6127 C   0  0  2  0  0  0  0  0  0  0  0  0
    2.9424   -3.6050    8.0192 C   0  0  0  0  0  0  0  0  0  0  0  0
    4.0291   -4.3820    8.4524 O   0  0  0  0  0  0  0  0  0  0  0  0
    4.2953   -5.8518    7.8823 P   0  0  0  0  0  0  0  0  0  0  0  0
    5.7372   -6.2344    7.7935 O   0  0  0  0  0  0  0  0  0  0  0  0
    3.5705   -6.7713    8.9791 O   0  0  0  0  0  0  0  0  0  0  0  0
    3.4366   -6.1047    6.5594 O   0  0  0  0  0  0  0  0  0  0  0  0
    3.9678   -5.6518    5.3201 C   0  0  2  0  0  0  0  0  0  0  0  0
    3.7764   -4.2540    5.2312 O   0  0  0  0  0  0  0  0  0  0  0  0
    4.0586   -3.6308    3.9838 C   0  0  2  0  0  0  0  0  0  0  0  0
    3.6746   -2.1551    4.1724 C   0  0  0  0  0  0  0  0  0  0  0  0
    3.8771   -1.4050    2.9860 O   0  0  0  0  0  0  0  0  0  0  0  0
    3.2925   -4.2972    2.8328 C   0  0  2  0  0  0  0  0  0  0  0  0
    1.8705   -4.0937    2.9592 O   0  0  0  0  0  0  0  0  0  0  0  0
    3.5442   -5.8102    2.8453 C   0  0  2  0  0  0  0  0  0  0  0  0
    2.7361   -6.4098    1.8202 O   0  0  0  0  0  0  0  0  0  0  0  0
    3.2063   -6.4064    4.2186 C   0  0  1  0  0  0  0  0  0  0  0  0
    3.5516   -7.8000    4.2635 O   0  0  0  0  0  0  0  0  0  0  0  0
    1.4146   -3.4806   10.0397 C   0  0  1  0  0  0  0  0  0  0  0  0
    2.0417   -2.2288   10.3240 O   0  0  0  0  0  0  0  0  0  0  0  0
   -0.0860   -3.2750   10.1426 C   0  0  2  0  0  0  0  0  0  0  0  0
   -0.3411   -2.8947   11.5029 O   0  0  0  0  0  0  0  0  0  0  0  0
   -0.5523   -3.0283    6.4335 H   0  0  0  0  0  0  0  0  0  0  0  0
   -1.5717   -4.0806    5.4412 H   0  0  0  0  0  0  0  0  0  0  0  0
   -0.5019   -4.8165    6.6216 H   0  0  0  0  0  0  0  0  0  0  0  0
   -2.8839   -3.8275    9.2744 H   0  0  0  0  0  0  0  0  0  0  0  0
   -1.4711   -4.8270   10.4793 H   0  0  0  0  0  0  0  0  0  0  0  0
   -0.6096   -6.3217    8.4728 H   0  0  0  0  0  0  0  0  0  0  0  0
    0.4205   -8.7700   12.0750 H   0  0  0  0  0  0  0  0  0  0  0  0
   -2.2997   -7.4927   14.2113 H   0  0  0  0  0  0  0  0  0  0  0  0
   -4.7897   -5.5746   13.9234 H   0  0  0  0  0  0  0  0  0  0  0  0
   -6.1469   -5.4569   12.8233 H   0  0  0  0  0  0  0  0  0  0  0  0
   -4.5644   -4.1259   11.2623 H   0  0  0  0  0  0  0  0  0  0  0  0
   -4.9663   -1.4575   11.2516 H   0  0  0  0  0  0  0  0  0  0  0  0
   -6.5570   -1.0691   13.9522 H   0  0  0  0  0  0  0  0  0  0  0  0
   -6.7489    1.0528   15.2522 H   0  0  0  0  0  0  0  0  0  0  0  0
   -3.1311    2.2793   13.5237 H   0  0  0  0  0  0  0  0  0  0  0  0
   -2.3962   -1.6517   12.6836 H   0  0  0  0  0  0  0  0  0  0  0  0
   -1.9550   -2.0053   10.7649 H   0  0  0  0  0  0  0  0  0  0  0  0
   -3.3566   -3.4035   14.0074 H   0  0  0  0  0  0  0  0  0  0  0  0
   -2.2011   -5.1448   13.3759 H   0  0  0  0  0  0  0  0  0  0  0  0
    0.9197   -3.3281    7.9885 H   0  0  0  0  0  0  0  0  0  0  0  0
    3.1972   -2.5543    8.2025 H   0  0  0  0  0  0  0  0  0  0  0  0
    2.8186   -3.6620    6.9492 H   0  0  0  0  0  0  0  0  0  0  0  0
    4.2407   -7.1088    9.5989 H   0  0  0  0  0  0  0  0  0  0  0  0
    5.0377   -5.8851    5.2769 H   0  0  0  0  0  0  0  0  0  0  0  0
    5.1357   -3.7018    3.7917 H   0  0  0  0  0  0  0  0  0  0  0  0
    2.6247   -2.0580    4.4764 H   0  0  0  0  0  0  0  0  0  0  0  0
    4.2701   -1.7159    4.9819 H   0  0  0  0  0  0  0  0  0  0  0  0
    3.7515   -0.4676    3.2230 H   0  0  0  0  0  0  0  0  0  0  0  0
    3.5866   -3.8804    1.8630 H   0  0  0  0  0  0  0  0  0  0  0  0
    1.6917   -3.1967    2.6183 H   0  0  0  0  0  0  0  0  0  0  0  0
    4.5887   -6.0275    2.5947 H   0  0  0  0  0  0  0  0  0  0  0  0
    1.8312   -6.0748    1.9737 H   0  0  0  0  0  0  0  0  0  0  0  0
    2.1233   -6.3526    4.3899 H   0  0  0  0  0  0  0  0  0  0  0  0
    3.2185   -8.1334    5.1175 H   0  0  0  0  0  0  0  0  0  0  0  0
    1.7830   -4.2143   10.7651 H   0  0  0  0  0  0  0  0  0  0  0  0
    1.6292   -1.9162   11.1554 H   0  0  0  0  0  0  0  0  0  0  0  0
   -0.3482   -2.3843    9.5556 H   0  0  0  0  0  0  0  0  0  0  0  0
   -0.7406   -3.6588   11.9772 H   0  0  0  0  0  0  0  0  0  0  0  0
  1  2  1  0  0  0  0
  1 55  1  0  0  0  0
  1 56  1  0  0  0  0
  1 57  1  0  0  0  0
  2  3  2  0  0  0  0
  2  4  1  0  0  0  0
  4 58  1  0  0  0  0
  5  6  1  0  0  0  0
  5 53  1  0  0  0  0
  5  4  1  0  0  0  0
  5 59  1  1  0  0  0
  6  7  1  0  0  0  0
  6 32  1  0  0  0  0
  6 60  1  0  0  0  0
  7  8  1  0  0  0  0
  8  9  2  0  0  0  0
  8 10  1  0  0  0  0
  8 11  1  0  0  0  0
 10 61  1  0  0  0  0
 11 12  1  0  0  0  0
 12 13  2  0  0  0  0
 12 14  1  0  0  0  0
 12 15  1  0  0  0  0
 14 62  1  0  0  0  0
 15 16  1  0  0  0  0
 16 17  1  0  0  0  0
 16 63  1  0  0  0  0
 16 64  1  0  0  0  0
 17 18  1  0  0  0  0
 17 30  1  0  0  0  0
 17 65  1  6  0  0  0
 18 19  1  0  0  0  0
 19 20  1  0  0  0  0
 19 28  1  0  0  0  0
 19 66  1  6  0  0  0
 20 21  1  0  0  0  0
 20 26  1  0  0  0  0
 21 22  2  0  0  0  0
 21 67  1  0  0  0  0
 22 23  1  0  0  0  0
 22 68  1  0  0  0  0
 23 24  2  0  0  0  0
 23 25  1  0  0  0  0
 25 26  1  0  0  0  0
 25 69  1  0  0  0  0
 26 27  2  0  0  0  0
 28 29  1  0  0  0  0
 28 30  1  0  0  0  0
 28 70  1  1  0  0  0
 29 71  1  0  0  0  0
 30 31  1  0  0  0  0
 30 72  1  1  0  0  0
 31 73  1  0  0  0  0
 32 33  1  0  0  0  0
 33 34  1  0  0  0  0
 33 51  1  0  0  0  0
 33 74  1  6  0  0  0
 34 35  1  0  0  0  0
 34 75  1  0  0  0  0
 34 76  1  0  0  0  0
 35 36  1  0  0  0  0
 36 37  2  0  0  0  0
 36 38  1  0  0  0  0
 36 39  1  0  0  0  0
 38 77  1  0  0  0  0
 40 41  1  0  0  0  0
 40 49  1  0  0  0  0
 40 39  1  0  0  0  0
 40 78  1  6  0  0  0
 41 42  1  0  0  0  0
 42 45  1  0  0  0  0
 42 43  1  0  0  0  0
 42 79  1  6  0  0  0
 43 44  1  0  0  0  0
 43 80  1  0  0  0  0
 43 81  1  0  0  0  0
 44 82  1  0  0  0  0
 45 46  1  0  0  0  0
 45 47  1  0  0  0  0
 45 83  1  6  0  0  0
 46 84  1  0  0  0  0
 47 48  1  0  0  0  0
 47 49  1  0  0  0  0
 47 85  1  6  0  0  0
 48 86  1  0  0  0  0
 49 50  1  0  0  0  0
 49 87  1  1  0  0  0
 50 88  1  0  0  0  0
 51 52  1  0  0  0  0
 51 53  1  0  0  0  0
 51 89  1  1  0  0  0
 52 90  1  0  0  0  0
 53 54  1  0  0  0  0
 53 91  1  6  0  0  0
 54 92  1  0  0  0  0
M  END
$$$$
