CHEBI:17875
 OpenBabel04242423123D

 40 42  0  0  0  0  0  0  0  0999 V2000
   -1.9953    0.5002   -0.0832 O   0  0  0  0  0  0  0  0  0  0  0  0
   -1.3150   -0.5192   -0.1463 C   0  0  0  0  0  0  0  0  0  0  0  0
   -1.9768   -1.8519   -0.0549 C   0  0  0  0  0  0  0  0  0  0  0  0
   -3.3372   -1.9122    0.2047 O   0  0  0  0  0  0  0  0  0  0  0  0
   -4.4459   -1.0251   -0.5970 S   0  0  0  0  0  0  0  0  0  0  0  0
   -3.9823   -0.8159   -1.9532 O   0  0  0  0  0  0  0  0  0  0  0  0
   -5.7361   -1.6262   -0.3382 O   0  0  0  0  0  0  0  0  0  0  0  0
   -4.4291    0.4039    0.1522 O   0  0  0  0  0  0  0  0  0  0  0  0
   -1.2125   -2.9590   -0.1431 C   0  0  0  0  0  0  0  0  0  0  0  0
   -1.7389   -4.3465   -0.0260 C   0  0  0  0  0  0  0  0  0  0  0  0
   -2.7564   -4.6910    0.8754 C   0  0  0  0  0  0  0  0  0  0  0  0
   -3.2083   -6.0095    0.9893 C   0  0  0  0  0  0  0  0  0  0  0  0
   -2.6236   -7.0173    0.2255 C   0  0  0  0  0  0  0  0  0  0  0  0
   -3.0398   -8.3072    0.4124 O   0  0  0  0  0  0  0  0  0  0  0  0
   -1.6000   -6.7121   -0.6696 C   0  0  0  0  0  0  0  0  0  0  0  0
   -0.8908   -7.6120   -1.4228 O   0  0  0  0  0  0  0  0  0  0  0  0
   -1.5382   -8.9583   -2.0722 S   0  0  0  0  0  0  0  0  0  0  0  0
   -2.9085   -8.7057   -2.4656 O   0  0  0  0  0  0  0  0  0  0  0  0
   -0.5834   -9.4860   -3.0244 O   0  0  0  0  0  0  0  0  0  0  0  0
   -1.5806   -9.9911   -0.8319 O   0  0  0  0  0  0  0  0  0  0  0  0
   -1.1649   -5.3823   -0.7855 C   0  0  0  0  0  0  0  0  0  0  0  0
    0.1548   -2.9312   -0.3783 O   0  0  0  0  0  0  0  0  0  0  0  0
    0.8126   -1.7294   -0.3612 C   0  0  0  0  0  0  0  0  0  0  0  0
    2.2067   -1.7919   -0.4464 C   0  0  0  0  0  0  0  0  0  0  0  0
    2.9437   -0.6154   -0.3945 C   0  0  0  0  0  0  0  0  0  0  0  0
    4.3051   -0.6226   -0.4505 O   0  0  0  0  0  0  0  0  0  0  0  0
    2.3121    0.6169   -0.2703 C   0  0  0  0  0  0  0  0  0  0  0  0
    0.9188    0.6732   -0.1981 C   0  0  0  0  0  0  0  0  0  0  0  0
    0.3166    1.8909   -0.0589 O   0  0  0  0  0  0  0  0  0  0  0  0
    0.1588   -0.5037   -0.2458 C   0  0  0  0  0  0  0  0  0  0  0  0
   -3.5202    0.7879    0.0411 H   0  0  0  0  0  0  0  0  0  0  0  0
   -3.2076   -3.9462    1.5276 H   0  0  0  0  0  0  0  0  0  0  0  0
   -3.9960   -6.2291    1.7055 H   0  0  0  0  0  0  0  0  0  0  0  0
   -3.9301   -8.2690    0.8174 H   0  0  0  0  0  0  0  0  0  0  0  0
   -2.1531   -9.5754   -0.1467 H   0  0  0  0  0  0  0  0  0  0  0  0
   -0.3575   -5.1629   -1.4836 H   0  0  0  0  0  0  0  0  0  0  0  0
    2.6957   -2.7572   -0.5383 H   0  0  0  0  0  0  0  0  0  0  0  0
    4.6219   -1.5384   -0.5295 H   0  0  0  0  0  0  0  0  0  0  0  0
    2.9185    1.5169   -0.2231 H   0  0  0  0  0  0  0  0  0  0  0  0
    0.9833    2.5978   -0.0702 H   0  0  0  0  0  0  0  0  0  0  0  0
  1  2  2  0  0  0  0
  2  3  1  0  0  0  0
  2 30  1  0  0  0  0
  3  4  1  0  0  0  0
  3  9  2  0  0  0  0
  4  5  1  0  0  0  0
  5  6  2  0  0  0  0
  5  7  2  0  0  0  0
  5  8  1  0  0  0  0
  8 31  1  0  0  0  0
  9 10  1  0  0  0  0
  9 22  1  0  0  0  0
 10 11  1  0  0  0  0
 10 21  2  0  0  0  0
 11 12  2  0  0  0  0
 11 32  1  0  0  0  0
 12 13  1  0  0  0  0
 12 33  1  0  0  0  0
 13 14  1  0  0  0  0
 13 15  2  0  0  0  0
 14 34  1  0  0  0  0
 15 16  1  0  0  0  0
 15 21  1  0  0  0  0
 16 17  1  0  0  0  0
 17 18  2  0  0  0  0
 17 19  2  0  0  0  0
 17 20  1  0  0  0  0
 20 35  1  0  0  0  0
 21 36  1  0  0  0  0
 22 23  1  0  0  0  0
 23 24  1  0  0  0  0
 23 30  2  0  0  0  0
 24 25  2  0  0  0  0
 24 37  1  0  0  0  0
 25 26  1  0  0  0  0
 25 27  1  0  0  0  0
 26 38  1  0  0  0  0
 27 28  2  0  0  0  0
 27 39  1  0  0  0  0
 28 29  1  0  0  0  0
 28 30  1  0  0  0  0
 29 40  1  0  0  0  0
M  END
$$$$
