CHEBI:17322
 OpenBabel04242416163D

  5  4  0  0  0  0  0  0  0  0999 V2000
    1.1913   -0.0424    0.1071 O   0  5  0  0  0  0  0  0  0  0  0  0
    2.7819    0.0144    0.0579 Cl  0  2  0  0  0  0  0  0  0  0  0  0
    3.5610    1.0615   -0.8501 O   0  5  0  0  0  0  0  0  0  0  0  0
    3.5795   -1.0456    0.9770 O   0  0  0  0  0  0  0  0  0  0  0  0
    2.8997   -1.5658    1.4280 H   0  0  0  0  0  0  0  0  0  0  0  0
  1  2  1  0  0  0  0
  2  3  1  0  0  0  0
  2  4  1  0  0  0  0
  4  5  1  0  0  0  0
M  CHG  3   1  -1   2   2   3  -1
M  END
$$$$
