CHEBI:17396
 OpenBabel04242416293D

 38 39  0  0  1  0  0  0  0  0999 V2000
    2.2760    5.1118   -2.8214 N   0  0  0  0  0  0  0  0  0  0  0  0
    2.4047    4.0386   -2.3929 C   0  0  0  0  0  0  0  0  0  0  0  0
    2.5869    2.6581   -1.8801 C   0  0  2  0  0  0  0  0  0  0  0  0
    1.3000    2.0681   -1.6488 O   0  0  0  0  0  0  0  0  0  0  0  0
    1.3266    0.6410   -1.5835 C   0  0  2  0  0  0  0  0  0  0  0  0
    1.7146    0.1169   -2.8545 O   0  0  0  0  0  0  0  0  0  0  0  0
    1.7635   -1.3209   -2.8695 C   0  0  2  0  0  0  0  0  0  0  0  0
    2.3104   -1.7413   -4.2392 C   0  0  0  0  0  0  0  0  0  0  0  0
    1.5184   -1.1796   -5.2868 O   0  0  0  0  0  0  0  0  0  0  0  0
    0.3684   -1.9057   -2.6120 C   0  0  1  0  0  0  0  0  0  0  0  0
    0.4299   -3.3314   -2.5211 O   0  0  0  0  0  0  0  0  0  0  0  0
   -0.1914   -1.3554   -1.2984 C   0  0  2  0  0  0  0  0  0  0  0  0
   -1.5614   -1.7713   -1.1389 O   0  0  0  0  0  0  0  0  0  0  0  0
   -0.0966    0.1682   -1.2181 C   0  0  1  0  0  0  0  0  0  0  0  0
   -0.4554    0.5795    0.1104 O   0  0  0  0  0  0  0  0  0  0  0  0
    3.4508    2.6553   -0.6272 C   0  0  0  0  0  0  0  0  0  0  0  0
    4.8466    2.5322   -0.7423 C   0  0  0  0  0  0  0  0  0  0  0  0
    5.6581    2.5509    0.3930 C   0  0  0  0  0  0  0  0  0  0  0  0
    5.0878    2.6950    1.6556 C   0  0  0  0  0  0  0  0  0  0  0  0
    3.7065    2.8251    1.7853 C   0  0  0  0  0  0  0  0  0  0  0  0
    2.8916    2.8113    0.6519 C   0  0  0  0  0  0  0  0  0  0  0  0
    3.0996    2.0885   -2.6658 H   0  0  0  0  0  0  0  0  0  0  0  0
    2.0367    0.3235   -0.8098 H   0  0  0  0  0  0  0  0  0  0  0  0
    2.4702   -1.6697   -2.1050 H   0  0  0  0  0  0  0  0  0  0  0  0
    3.3299   -1.3632   -4.3707 H   0  0  0  0  0  0  0  0  0  0  0  0
    2.3280   -2.8287   -4.3559 H   0  0  0  0  0  0  0  0  0  0  0  0
    1.5063   -0.2173   -5.1247 H   0  0  0  0  0  0  0  0  0  0  0  0
   -0.3179   -1.6566   -3.4303 H   0  0  0  0  0  0  0  0  0  0  0  0
   -0.4346   -3.6275   -2.1739 H   0  0  0  0  0  0  0  0  0  0  0  0
    0.3402   -1.8052   -0.4505 H   0  0  0  0  0  0  0  0  0  0  0  0
   -2.0810   -1.4082   -1.8802 H   0  0  0  0  0  0  0  0  0  0  0  0
   -0.8283    0.6274   -1.8943 H   0  0  0  0  0  0  0  0  0  0  0  0
   -1.2786    0.1037    0.3346 H   0  0  0  0  0  0  0  0  0  0  0  0
    5.3163    2.4302   -1.7190 H   0  0  0  0  0  0  0  0  0  0  0  0
    6.7371    2.4612    0.2926 H   0  0  0  0  0  0  0  0  0  0  0  0
    5.7208    2.7142    2.5392 H   0  0  0  0  0  0  0  0  0  0  0  0
    3.2624    2.9444    2.7706 H   0  0  0  0  0  0  0  0  0  0  0  0
    1.8143    2.9216    0.7740 H   0  0  0  0  0  0  0  0  0  0  0  0
  1  2  3  0  0  0  0
  3 16  1  0  0  0  0
  3  4  1  0  0  0  0
  3  2  1  0  0  0  0
  3 22  1  6  0  0  0
  5  6  1  0  0  0  0
  5 14  1  0  0  0  0
  5  4  1  0  0  0  0
  5 23  1  1  0  0  0
  6  7  1  0  0  0  0
  7 10  1  0  0  0  0
  7  8  1  0  0  0  0
  7 24  1  1  0  0  0
  8  9  1  0  0  0  0
  8 25  1  0  0  0  0
  8 26  1  0  0  0  0
  9 27  1  0  0  0  0
 10 11  1  0  0  0  0
 10 12  1  0  0  0  0
 10 28  1  6  0  0  0
 11 29  1  0  0  0  0
 12 13  1  0  0  0  0
 12 14  1  0  0  0  0
 12 30  1  1  0  0  0
 13 31  1  0  0  0  0
 14 15  1  0  0  0  0
 14 32  1  6  0  0  0
 15 33  1  0  0  0  0
 16 17  1  0  0  0  0
 16 21  2  0  0  0  0
 17 18  2  0  0  0  0
 17 34  1  0  0  0  0
 18 19  1  0  0  0  0
 18 35  1  0  0  0  0
 19 20  2  0  0  0  0
 19 36  1  0  0  0  0
 20 21  1  0  0  0  0
 20 37  1  0  0  0  0
 21 38  1  0  0  0  0
M  END
$$$$
