CHEBI:16650
 OpenBabel04242415003D

 66 68  0  0  1  0  0  0  0  0999 V2000
    7.4623    3.7163    6.2858 C   0  0  0  0  0  0  0  0  0  0  0  0
    7.0142    2.5073    5.5128 C   0  0  0  0  0  0  0  0  0  0  0  0
    7.7645    1.8782    4.7746 O   0  0  0  0  0  0  0  0  0  0  0  0
    5.6688    2.2358    5.5877 N   0  0  0  0  0  0  0  0  0  0  0  0
    5.0679    0.9726    5.0868 C   0  0  1  0  0  0  0  0  0  0  0  0
    5.3308    0.6414    3.5780 C   0  0  0  0  0  0  0  0  0  0  0  0
    4.6833    1.5718    2.7041 O   0  0  0  0  0  0  0  0  0  0  0  0
    5.2629    3.1777    2.9835 P   0  0  0  0  0  0  0  0  0  0  0  0
    3.8657    3.6028    3.4417 O   0  0  0  0  0  0  0  0  0  0  0  0
    5.2540    3.3903    1.3685 O   0  0  0  0  0  0  0  0  0  0  0  0
    5.8425    4.7836    3.2629 O   0  0  0  0  0  0  0  0  0  0  0  0
    5.7402    6.0617    2.3297 P   0  0  0  0  0  0  0  0  0  0  0  0
    6.0465    7.3627    3.0052 O   0  0  0  0  0  0  0  0  0  0  0  0
    6.8370    5.8085    1.1843 O   0  0  0  0  0  0  0  0  0  0  0  0
    4.3495    6.0406    1.5290 O   0  0  0  0  0  0  0  0  0  0  0  0
    4.1956    6.9892    0.4769 C   0  0  0  0  0  0  0  0  0  0  0  0
    2.7111    7.1639    0.1422 C   0  0  1  0  0  0  0  0  0  0  0  0
    2.1083    8.0292    1.1397 O   0  0  0  0  0  0  0  0  0  0  0  0
    1.6242    9.2211    0.4909 C   0  0  1  0  0  0  0  0  0  0  0  0
    1.8199   10.4046    1.3399 N   0  0  0  0  0  0  0  0  0  0  0  0
    2.4804   10.3277    2.5530 C   0  0  0  0  0  0  0  0  0  0  0  0
    2.6174   11.3865    3.3547 C   0  0  0  0  0  0  0  0  0  0  0  0
    2.0423   12.6748    2.9411 C   0  0  0  0  0  0  0  0  0  0  0  0
    2.1408   13.6717    3.6426 O   0  0  0  0  0  0  0  0  0  0  0  0
    1.4048   12.6747    1.7349 N   0  0  0  0  0  0  0  0  0  0  0  0
    1.2650   11.6002    0.9006 C   0  0  0  0  0  0  0  0  0  0  0  0
    0.6962   11.7252   -0.1840 O   0  0  0  0  0  0  0  0  0  0  0  0
    2.3660    9.3067   -0.8552 C   0  0  2  0  0  0  0  0  0  0  0  0
    1.6717    9.9792   -1.9079 O   0  0  0  0  0  0  0  0  0  0  0  0
    2.5035    7.8390   -1.2102 C   0  0  2  0  0  0  0  0  0  0  0  0
    1.2761    7.3839   -1.8000 O   0  0  0  0  0  0  0  0  0  0  0  0
    4.8531   -0.6688    3.2373 O   0  0  0  0  0  0  0  0  0  0  0  0
    5.4449   -1.7090    4.0295 C   0  0  2  0  0  0  0  0  0  0  0  0
    5.0146   -3.0658    3.4517 C   0  0  0  0  0  0  0  0  0  0  0  0
    3.6368   -3.3317    3.7217 O   0  0  0  0  0  0  0  0  0  0  0  0
    5.0240   -1.5377    5.4959 C   0  0  2  0  0  0  0  0  0  0  0  0
    3.5973   -1.5509    5.6754 O   0  0  0  0  0  0  0  0  0  0  0  0
    5.5168   -0.1856    6.0025 C   0  0  2  0  0  0  0  0  0  0  0  0
    5.0023    0.0383    7.3291 O   0  0  0  0  0  0  0  0  0  0  0  0
    6.8040    3.9127    7.1356 H   0  0  0  0  0  0  0  0  0  0  0  0
    7.4621    4.5848    5.6216 H   0  0  0  0  0  0  0  0  0  0  0  0
    8.4740    3.5466    6.6644 H   0  0  0  0  0  0  0  0  0  0  0  0
    5.1573    2.6591    6.3578 H   0  0  0  0  0  0  0  0  0  0  0  0
    3.9880    1.1273    5.2136 H   0  0  0  0  0  0  0  0  0  0  0  0
    6.3959    0.6609    3.3329 H   0  0  0  0  0  0  0  0  0  0  0  0
    4.3434    3.6478    1.1176 H   0  0  0  0  0  0  0  0  0  0  0  0
    7.6139    6.3781    1.3323 H   0  0  0  0  0  0  0  0  0  0  0  0
    4.7402    6.6014   -0.3897 H   0  0  0  0  0  0  0  0  0  0  0  0
    4.6365    7.9452    0.7802 H   0  0  0  0  0  0  0  0  0  0  0  0
    2.1929    6.2003    0.2011 H   0  0  0  0  0  0  0  0  0  0  0  0
    0.5439    9.1092    0.3293 H   0  0  0  0  0  0  0  0  0  0  0  0
    2.8884    9.3653    2.8517 H   0  0  0  0  0  0  0  0  0  0  0  0
    3.1259   11.3453    4.3086 H   0  0  0  0  0  0  0  0  0  0  0  0
    1.0060   13.5490    1.4307 H   0  0  0  0  0  0  0  0  0  0  0  0
    3.3529    9.7666   -0.7278 H   0  0  0  0  0  0  0  0  0  0  0  0
    1.2515   10.7791   -1.5173 H   0  0  0  0  0  0  0  0  0  0  0  0
    3.2952    7.6432   -1.9390 H   0  0  0  0  0  0  0  0  0  0  0  0
    1.0064    8.1012   -2.4126 H   0  0  0  0  0  0  0  0  0  0  0  0
    6.5360   -1.6358    3.9327 H   0  0  0  0  0  0  0  0  0  0  0  0
    5.6018   -3.8727    3.9015 H   0  0  0  0  0  0  0  0  0  0  0  0
    5.1573   -3.0774    2.3663 H   0  0  0  0  0  0  0  0  0  0  0  0
    3.3681   -4.0511    3.1208 H   0  0  0  0  0  0  0  0  0  0  0  0
    5.4270   -2.3434    6.1192 H   0  0  0  0  0  0  0  0  0  0  0  0
    3.2458   -2.1810    5.0039 H   0  0  0  0  0  0  0  0  0  0  0  0
    6.6094   -0.2065    6.0839 H   0  0  0  0  0  0  0  0  0  0  0  0
    4.0905   -0.3261    7.3057 H   0  0  0  0  0  0  0  0  0  0  0  0
  1  2  1  0  0  0  0
  1 40  1  0  0  0  0
  1 41  1  0  0  0  0
  1 42  1  0  0  0  0
  2  3  2  0  0  0  0
  2  4  1  0  0  0  0
  4 43  1  0  0  0  0
  5  6  1  0  0  0  0
  5 38  1  0  0  0  0
  5  4  1  0  0  0  0
  5 44  1  1  0  0  0
  6  7  1  0  0  0  0
  6 32  1  0  0  0  0
  6 45  1  0  0  0  0
  7  8  1  0  0  0  0
  8  9  2  0  0  0  0
  8 10  1  0  0  0  0
  8 11  1  0  0  0  0
 10 46  1  0  0  0  0
 11 12  1  0  0  0  0
 12 13  2  0  0  0  0
 12 14  1  0  0  0  0
 12 15  1  0  0  0  0
 14 47  1  0  0  0  0
 15 16  1  0  0  0  0
 16 17  1  0  0  0  0
 16 48  1  0  0  0  0
 16 49  1  0  0  0  0
 17 18  1  0  0  0  0
 17 30  1  0  0  0  0
 17 50  1  1  0  0  0
 18 19  1  0  0  0  0
 19 20  1  0  0  0  0
 19 28  1  0  0  0  0
 19 51  1  6  0  0  0
 20 21  1  0  0  0  0
 20 26  1  0  0  0  0
 21 22  2  0  0  0  0
 21 52  1  0  0  0  0
 22 23  1  0  0  0  0
 22 53  1  0  0  0  0
 23 24  2  0  0  0  0
 23 25  1  0  0  0  0
 25 26  1  0  0  0  0
 25 54  1  0  0  0  0
 26 27  2  0  0  0  0
 28 29  1  0  0  0  0
 28 30  1  0  0  0  0
 28 55  1  1  0  0  0
 29 56  1  0  0  0  0
 30 31  1  0  0  0  0
 30 57  1  6  0  0  0
 31 58  1  0  0  0  0
 32 33  1  0  0  0  0
 33 34  1  0  0  0  0
 33 36  1  0  0  0  0
 33 59  1  6  0  0  0
 34 35  1  0  0  0  0
 34 60  1  0  0  0  0
 34 61  1  0  0  0  0
 35 62  1  0  0  0  0
 36 37  1  0  0  0  0
 36 38  1  0  0  0  0
 36 63  1  1  0  0  0
 37 64  1  0  0  0  0
 38 39  1  0  0  0  0
 38 65  1  1  0  0  0
 39 66  1  0  0  0  0
M  END
$$$$
