CHEBI:16441
 OpenBabel04242414263D

 34 34  0  0  1  0  0  0  0  0999 V2000
    2.1299    1.4748   -3.1890 C   0  0  0  0  0  0  0  0  0  0  0  0
    1.3725    1.2424   -1.8750 C   0  0  0  0  0  0  0  0  0  0  0  0
    2.3509    1.4749   -0.7129 C   0  0  0  0  0  0  0  0  0  0  0  0
    0.8825   -0.1555   -1.8017 C   0  0  0  0  0  0  0  0  0  0  0  0
    0.4770   -1.2421   -1.7531 N   0  0  0  0  0  0  0  0  0  0  0  0
    0.3173    2.2114   -1.6676 O   0  0  0  0  0  0  0  0  0  0  0  0
   -0.7945    2.1496   -2.5702 C   0  0  2  0  0  0  0  0  0  0  0  0
   -0.3976    2.5407   -3.8789 O   0  0  0  0  0  0  0  0  0  0  0  0
   -1.4756    2.4789   -4.8203 C   0  0  2  0  0  0  0  0  0  0  0  0
   -0.9226    2.7667   -6.2220 C   0  0  0  0  0  0  0  0  0  0  0  0
   -1.8943    2.5490   -7.2373 O   0  0  0  0  0  0  0  0  0  0  0  0
   -2.5666    3.4865   -4.4275 C   0  0  1  0  0  0  0  0  0  0  0  0
   -3.6730    3.4326   -5.3337 O   0  0  0  0  0  0  0  0  0  0  0  0
   -3.0454    3.1844   -3.0058 C   0  0  2  0  0  0  0  0  0  0  0  0
   -3.9790    4.1992   -2.6054 O   0  0  0  0  0  0  0  0  0  0  0  0
   -1.8626    3.1310   -2.0374 C   0  0  1  0  0  0  0  0  0  0  0  0
   -2.3468    2.7425   -0.7432 O   0  0  0  0  0  0  0  0  0  0  0  0
    3.0727    0.9159   -3.2143 H   0  0  0  0  0  0  0  0  0  0  0  0
    2.3530    2.5382   -3.3314 H   0  0  0  0  0  0  0  0  0  0  0  0
    1.5535    1.1401   -4.0585 H   0  0  0  0  0  0  0  0  0  0  0  0
    3.2041    0.7878   -0.7518 H   0  0  0  0  0  0  0  0  0  0  0  0
    1.8519    1.3382    0.2543 H   0  0  0  0  0  0  0  0  0  0  0  0
    2.7329    2.5024   -0.7245 H   0  0  0  0  0  0  0  0  0  0  0  0
   -1.2039    1.1324   -2.5752 H   0  0  0  0  0  0  0  0  0  0  0  0
   -1.8972    1.4642   -4.8321 H   0  0  0  0  0  0  0  0  0  0  0  0
   -0.5565    3.7966   -6.2950 H   0  0  0  0  0  0  0  0  0  0  0  0
   -0.0662    2.1148   -6.4272 H   0  0  0  0  0  0  0  0  0  0  0  0
   -2.7380    2.9335   -6.9154 H   0  0  0  0  0  0  0  0  0  0  0  0
   -2.1707    4.5093   -4.4648 H   0  0  0  0  0  0  0  0  0  0  0  0
   -4.3858    3.9430   -4.8936 H   0  0  0  0  0  0  0  0  0  0  0  0
   -3.6063    2.2416   -2.9839 H   0  0  0  0  0  0  0  0  0  0  0  0
   -4.1347    4.0426   -1.6515 H   0  0  0  0  0  0  0  0  0  0  0  0
   -1.4350    4.1346   -1.9194 H   0  0  0  0  0  0  0  0  0  0  0  0
   -1.5550    2.6496   -0.1781 H   0  0  0  0  0  0  0  0  0  0  0  0
  1  2  1  0  0  0  0
  1 18  1  0  0  0  0
  1 19  1  0  0  0  0
  1 20  1  0  0  0  0
  2  3  1  0  0  0  0
  2  4  1  0  0  0  0
  2  6  1  0  0  0  0
  3 21  1  0  0  0  0
  3 22  1  0  0  0  0
  3 23  1  0  0  0  0
  4  5  3  0  0  0  0
  7  8  1  0  0  0  0
  7 16  1  0  0  0  0
  7  6  1  0  0  0  0
  7 24  1  6  0  0  0
  8  9  1  0  0  0  0
  9 12  1  0  0  0  0
  9 10  1  0  0  0  0
  9 25  1  1  0  0  0
 10 11  1  0  0  0  0
 10 26  1  0  0  0  0
 10 27  1  0  0  0  0
 11 28  1  0  0  0  0
 12 13  1  0  0  0  0
 12 14  1  0  0  0  0
 12 29  1  6  0  0  0
 13 30  1  0  0  0  0
 14 15  1  0  0  0  0
 14 16  1  0  0  0  0
 14 31  1  1  0  0  0
 15 32  1  0  0  0  0
 16 17  1  0  0  0  0
 16 33  1  1  0  0  0
 17 34  1  0  0  0  0
M  END
$$$$
