CHEBI:3738
 OpenBabel04242410543D

 50 52  0  0  1  0  0  0  0  0999 V2000
   -4.8104    0.0499    2.8362 C   0  0  0  0  0  0  0  0  0  0  0  0
   -3.5452   -0.6474    2.6295 N   0  0  0  0  0  0  0  0  0  0  0  0
   -2.4684   -0.0481    3.4223 C   0  0  0  0  0  0  0  0  0  0  0  0
   -1.3798   -1.0996    3.3339 C   0  0  0  0  0  0  0  0  0  0  0  0
   -2.1326   -2.4240    3.3257 C   0  0  0  0  0  0  0  0  0  0  0  0
   -3.5980   -2.0582    3.0419 C   0  0  2  0  0  0  0  0  0  0  0  0
   -4.2751   -2.9841    2.0251 C   0  0  0  0  0  0  0  0  0  0  0  0
   -3.7478   -2.8829    0.5924 C   0  0  0  0  0  0  0  0  0  0  0  0
   -4.3057   -3.9794   -0.1326 O   0  0  0  0  0  0  0  0  0  0  0  0
   -3.9683   -4.1094   -1.5332 C   0  0  2  0  0  0  0  0  0  0  0  0
   -2.4527   -3.8924   -1.7538 C   0  0  0  0  0  0  0  0  0  0  0  0
   -4.8758   -3.1643   -2.3438 C   0  0  0  0  0  0  0  0  0  0  0  0
   -6.2527   -3.1013   -2.0506 C   0  0  0  0  0  0  0  0  0  0  0  0
   -7.1206   -2.3110   -2.8084 C   0  0  0  0  0  0  0  0  0  0  0  0
   -6.6319   -1.5691   -3.8794 C   0  0  0  0  0  0  0  0  0  0  0  0
   -5.2752   -1.6113   -4.1870 C   0  0  0  0  0  0  0  0  0  0  0  0
   -4.4050   -2.3985   -3.4261 C   0  0  0  0  0  0  0  0  0  0  0  0
   -4.2532   -5.5880   -1.9185 C   0  0  0  0  0  0  0  0  0  0  0  0
   -4.2130   -6.0050   -3.2640 C   0  0  0  0  0  0  0  0  0  0  0  0
   -4.4317   -7.3405   -3.6155 C   0  0  0  0  0  0  0  0  0  0  0  0
   -4.6954   -8.2821   -2.6245 C   0  0  0  0  0  0  0  0  0  0  0  0
   -4.9553   -9.9274   -3.0549 Cl  0  0  0  0  0  0  0  0  0  0  0  0
   -4.7446   -7.8994   -1.2893 C   0  0  0  0  0  0  0  0  0  0  0  0
   -4.5232   -6.5643   -0.9384 C   0  0  0  0  0  0  0  0  0  0  0  0
   -4.7205    1.0984    2.5320 H   0  0  0  0  0  0  0  0  0  0  0  0
   -5.1341    0.0248    3.8833 H   0  0  0  0  0  0  0  0  0  0  0  0
   -5.6022   -0.3904    2.2217 H   0  0  0  0  0  0  0  0  0  0  0  0
   -2.7643    0.0996    4.4690 H   0  0  0  0  0  0  0  0  0  0  0  0
   -2.1371    0.9102    3.0105 H   0  0  0  0  0  0  0  0  0  0  0  0
   -0.6696   -1.0339    4.1639 H   0  0  0  0  0  0  0  0  0  0  0  0
   -0.8178   -0.9883    2.3985 H   0  0  0  0  0  0  0  0  0  0  0  0
   -2.0532   -2.9069    4.3070 H   0  0  0  0  0  0  0  0  0  0  0  0
   -1.6929   -3.1072    2.5928 H   0  0  0  0  0  0  0  0  0  0  0  0
   -4.1407   -2.1504    3.9942 H   0  0  0  0  0  0  0  0  0  0  0  0
   -5.3558   -2.7925    2.0086 H   0  0  0  0  0  0  0  0  0  0  0  0
   -4.1757   -4.0219    2.3712 H   0  0  0  0  0  0  0  0  0  0  0  0
   -2.6586   -2.9603    0.5974 H   0  0  0  0  0  0  0  0  0  0  0  0
   -4.0447   -1.9356    0.1315 H   0  0  0  0  0  0  0  0  0  0  0  0
   -2.1331   -4.1423   -2.7720 H   0  0  0  0  0  0  0  0  0  0  0  0
   -1.8658   -4.5121   -1.0648 H   0  0  0  0  0  0  0  0  0  0  0  0
   -2.1616   -2.8508   -1.5748 H   0  0  0  0  0  0  0  0  0  0  0  0
   -6.6572   -3.6876   -1.2268 H   0  0  0  0  0  0  0  0  0  0  0  0
   -8.1798   -2.2845   -2.5664 H   0  0  0  0  0  0  0  0  0  0  0  0
   -7.3077   -0.9628   -4.4765 H   0  0  0  0  0  0  0  0  0  0  0  0
   -4.8926   -1.0376   -5.0275 H   0  0  0  0  0  0  0  0  0  0  0  0
   -3.3573   -2.4129   -3.7136 H   0  0  0  0  0  0  0  0  0  0  0  0
   -4.0099   -5.2886   -4.0581 H   0  0  0  0  0  0  0  0  0  0  0  0
   -4.3936   -7.6359   -4.6597 H   0  0  0  0  0  0  0  0  0  0  0  0
   -4.9517   -8.6306   -0.5120 H   0  0  0  0  0  0  0  0  0  0  0  0
   -4.5632   -6.2934    0.1144 H   0  0  0  0  0  0  0  0  0  0  0  0
  1  2  1  0  0  0  0
  1 25  1  0  0  0  0
  1 26  1  0  0  0  0
  1 27  1  0  0  0  0
  2  3  1  0  0  0  0
  2  6  1  0  0  0  0
  3  4  1  0  0  0  0
  3 28  1  0  0  0  0
  3 29  1  0  0  0  0
  4  5  1  0  0  0  0
  4 30  1  0  0  0  0
  4 31  1  0  0  0  0
  5  6  1  0  0  0  0
  5 32  1  0  0  0  0
  5 33  1  0  0  0  0
  6  7  1  0  0  0  0
  6 34  1  1  0  0  0
  7  8  1  0  0  0  0
  7 35  1  0  0  0  0
  7 36  1  0  0  0  0
  8  9  1  0  0  0  0
  8 37  1  0  0  0  0
  8 38  1  0  0  0  0
 10 12  1  0  0  0  0
 10 18  1  0  0  0  0
 10 11  1  0  0  0  0
 10  9  1  1  0  0  0
 11 39  1  0  0  0  0
 11 40  1  0  0  0  0
 11 41  1  0  0  0  0
 12 13  1  0  0  0  0
 12 17  2  0  0  0  0
 13 14  2  0  0  0  0
 13 42  1  0  0  0  0
 14 15  1  0  0  0  0
 14 43  1  0  0  0  0
 15 16  2  0  0  0  0
 15 44  1  0  0  0  0
 16 17  1  0  0  0  0
 16 45  1  0  0  0  0
 17 46  1  0  0  0  0
 18 19  1  0  0  0  0
 18 24  2  0  0  0  0
 19 20  2  0  0  0  0
 19 47  1  0  0  0  0
 20 21  1  0  0  0  0
 20 48  1  0  0  0  0
 21 22  1  0  0  0  0
 21 23  2  0  0  0  0
 23 24  1  0  0  0  0
 23 49  1  0  0  0  0
 24 50  1  0  0  0  0
M  END
$$$$
