CHEBI:2956
 OpenBabel04242410423D

 55 58  0  0  1  0  0  0  0  0999 V2000
    3.0824    0.2295   -1.2427 C   0  0  0  0  0  0  0  0  0  0  0  0
    3.1405   -1.1225   -1.9575 C   0  0  0  0  0  0  0  0  0  0  0  0
    4.4405   -1.2446   -2.7655 C   0  0  0  0  0  0  0  0  0  0  0  0
    1.7265   -1.2186   -3.1565 S   0  0  0  0  0  0  0  0  0  0  0  0
    1.7305   -3.0483   -3.1123 C   0  0  2  0  0  0  0  0  0  0  0  0
    0.4218   -3.7756   -2.7397 C   0  0  2  0  0  0  0  0  0  0  0  0
   -0.8334   -2.9894   -2.8202 N   0  0  0  0  0  0  0  0  0  0  0  0
   -2.0392   -3.5663   -3.1849 C   0  0  0  0  0  0  0  0  0  0  0  0
   -2.1091   -4.7449   -3.5262 O   0  0  0  0  0  0  0  0  0  0  0  0
   -3.2520   -2.6030   -3.0584 C   0  0  2  0  0  0  0  0  0  0  0  0
   -3.6507   -2.5157   -1.6626 N   0  0  0  0  0  0  0  0  0  0  0  0
   -2.9613   -1.7810   -0.7433 C   0  0  0  0  0  0  0  0  0  0  0  0
   -1.9532   -1.1434   -1.0526 O   0  0  0  0  0  0  0  0  0  0  0  0
   -3.4622   -1.8169    0.5401 N   0  0  0  0  0  0  0  0  0  0  0  0
   -2.8723   -1.0382    1.6064 C   0  0  0  0  0  0  0  0  0  0  0  0
   -3.5777   -1.5239    2.8616 C   0  0  0  0  0  0  0  0  0  0  0  0
   -4.7440   -2.1951    2.3635 N   0  0  0  0  0  0  0  0  0  0  0  0
   -4.6020   -2.4868    1.0145 C   0  0  0  0  0  0  0  0  0  0  0  0
   -5.3406   -3.2295    0.3878 O   0  0  0  0  0  0  0  0  0  0  0  0
   -4.4280   -2.9857   -3.9403 C   0  0  0  0  0  0  0  0  0  0  0  0
   -4.8577   -2.1128   -4.9536 C   0  0  0  0  0  0  0  0  0  0  0  0
   -5.9381   -2.4468   -5.7732 C   0  0  0  0  0  0  0  0  0  0  0  0
   -6.6059   -3.6552   -5.5897 C   0  0  0  0  0  0  0  0  0  0  0  0
   -6.1962   -4.5304   -4.5871 C   0  0  0  0  0  0  0  0  0  0  0  0
   -5.1163   -4.1981   -3.7672 C   0  0  0  0  0  0  0  0  0  0  0  0
    1.0614   -3.8910   -1.3332 C   0  0  0  0  0  0  0  0  0  0  0  0
    0.7144   -4.1500   -0.2051 O   0  0  0  0  0  0  0  0  0  0  0  0
    2.2659   -3.3912   -1.7734 N   0  0  0  0  0  0  0  0  0  0  0  0
    2.8766   -2.2977   -0.9974 C   0  0  1  0  0  0  0  0  0  0  0  0
    4.1228   -2.7731   -0.2497 C   0  0  0  0  0  0  0  0  0  0  0  0
    4.8584   -2.0356    0.3904 O   0  0  0  0  0  0  0  0  0  0  0  0
    4.3472   -4.1053   -0.3468 O   0  0  0  0  0  0  0  0  0  0  0  0
    3.1792    1.0635   -1.9479 H   0  0  0  0  0  0  0  0  0  0  0  0
    3.8985    0.3229   -0.5176 H   0  0  0  0  0  0  0  0  0  0  0  0
    2.1426    0.3602   -0.6933 H   0  0  0  0  0  0  0  0  0  0  0  0
    4.5103   -0.4640   -3.5328 H   0  0  0  0  0  0  0  0  0  0  0  0
    4.5302   -2.2158   -3.2651 H   0  0  0  0  0  0  0  0  0  0  0  0
    5.3190   -1.1285   -2.1214 H   0  0  0  0  0  0  0  0  0  0  0  0
    2.3055   -3.5195   -3.9160 H   0  0  0  0  0  0  0  0  0  0  0  0
    0.3341   -4.7545   -3.2272 H   0  0  0  0  0  0  0  0  0  0  0  0
   -0.8952   -2.0904   -2.3324 H   0  0  0  0  0  0  0  0  0  0  0  0
   -2.8982   -1.6086   -3.3634 H   0  0  0  0  0  0  0  0  0  0  0  0
   -4.4139   -3.1011   -1.3298 H   0  0  0  0  0  0  0  0  0  0  0  0
   -3.0845    0.0187    1.4097 H   0  0  0  0  0  0  0  0  0  0  0  0
   -1.7873   -1.1734    1.6451 H   0  0  0  0  0  0  0  0  0  0  0  0
   -3.8623   -0.7152    3.5391 H   0  0  0  0  0  0  0  0  0  0  0  0
   -2.9722   -2.2586    3.4017 H   0  0  0  0  0  0  0  0  0  0  0  0
   -5.4079   -2.7202    2.9190 H   0  0  0  0  0  0  0  0  0  0  0  0
   -4.3545   -1.1619   -5.1147 H   0  0  0  0  0  0  0  0  0  0  0  0
   -6.2585   -1.7635   -6.5557 H   0  0  0  0  0  0  0  0  0  0  0  0
   -7.4447   -3.9166   -6.2290 H   0  0  0  0  0  0  0  0  0  0  0  0
   -6.7130   -5.4761   -4.4440 H   0  0  0  0  0  0  0  0  0  0  0  0
   -4.8049   -4.9033   -2.9983 H   0  0  0  0  0  0  0  0  0  0  0  0
    2.1581   -2.0008   -0.2203 H   0  0  0  0  0  0  0  0  0  0  0  0
    3.6213   -4.5408   -0.8411 H   0  0  0  0  0  0  0  0  0  0  0  0
  1  2  1  0  0  0  0
  1 33  1  0  0  0  0
  1 34  1  0  0  0  0
  1 35  1  0  0  0  0
  2  3  1  0  0  0  0
  2  4  1  0  0  0  0
  2 29  1  0  0  0  0
  3 36  1  0  0  0  0
  3 37  1  0  0  0  0
  3 38  1  0  0  0  0
  4  5  1  0  0  0  0
  5  6  1  0  0  0  0
  5 28  1  0  0  0  0
  5 39  1  6  0  0  0
  6  7  1  0  0  0  0
  6 26  1  0  0  0  0
  6 40  1  6  0  0  0
  7  8  1  0  0  0  0
  7 41  1  0  0  0  0
  8  9  2  0  0  0  0
 10 20  1  0  0  0  0
 10 11  1  0  0  0  0
 10  8  1  0  0  0  0
 10 42  1  6  0  0  0
 11 12  1  0  0  0  0
 11 43  1  0  0  0  0
 12 13  2  0  0  0  0
 12 14  1  0  0  0  0
 14 15  1  0  0  0  0
 14 18  1  0  0  0  0
 15 16  1  0  0  0  0
 15 44  1  0  0  0  0
 15 45  1  0  0  0  0
 16 17  1  0  0  0  0
 16 46  1  0  0  0  0
 16 47  1  0  0  0  0
 17 18  1  0  0  0  0
 17 48  1  0  0  0  0
 18 19  2  0  0  0  0
 20 21  1  0  0  0  0
 20 25  2  0  0  0  0
 21 22  2  0  0  0  0
 21 49  1  0  0  0  0
 22 23  1  0  0  0  0
 22 50  1  0  0  0  0
 23 24  2  0  0  0  0
 23 51  1  0  0  0  0
 24 25  1  0  0  0  0
 24 52  1  0  0  0  0
 25 53  1  0  0  0  0
 26 27  2  0  0  0  0
 26 28  1  0  0  0  0
 28 29  1  0  0  0  0
 29 30  1  0  0  0  0
 29 54  1  1  0  0  0
 30 31  2  0  0  0  0
 30 32  1  0  0  0  0
 32 55  1  0  0  0  0
M  END
$$$$
