CHEBI:17765
 OpenBabel04242417153D

 35 35  0  0  1  0  0  0  0  0999 V2000
    2.1962    7.7115    0.4663 O   0  0  0  0  0  0  0  0  0  0  0  0
    2.7340    7.5953   -0.8511 C   0  0  0  0  0  0  0  0  0  0  0  0
    2.6770    6.1395   -1.3337 C   0  0  0  0  0  0  0  0  0  0  0  0
    3.4823    5.2369   -0.3826 C   0  0  0  0  0  0  0  0  0  0  0  0
    3.7653    3.9777   -0.9968 O   0  0  0  0  0  0  0  0  0  0  0  0
    1.2747    5.7899   -1.3774 O   0  0  0  0  0  0  0  0  0  0  0  0
    1.0101    4.5293   -2.0103 C   0  0  2  0  0  0  0  0  0  0  0  0
    1.5729    4.4770   -3.3186 O   0  0  0  0  0  0  0  0  0  0  0  0
    1.3609    3.1945   -3.9409 C   0  0  2  0  0  0  0  0  0  0  0  0
    2.1239    3.2054   -5.2701 C   0  0  0  0  0  0  0  0  0  0  0  0
    1.7592    4.3482   -6.0464 O   0  0  0  0  0  0  0  0  0  0  0  0
   -0.1413    2.9411   -4.1398 C   0  0  1  0  0  0  0  0  0  0  0  0
   -0.3734    1.6255   -4.6521 O   0  0  0  0  0  0  0  0  0  0  0  0
   -0.8729    3.0779   -2.8010 C   0  0  2  0  0  0  0  0  0  0  0  0
   -2.2900    2.9957   -3.0266 O   0  0  0  0  0  0  0  0  0  0  0  0
   -0.5224    4.3937   -2.1108 C   0  0  1  0  0  0  0  0  0  0  0  0
   -1.1467    4.4162   -0.8167 O   0  0  0  0  0  0  0  0  0  0  0  0
    1.2888    7.3588    0.4095 H   0  0  0  0  0  0  0  0  0  0  0  0
    3.7627    7.9675   -0.8349 H   0  0  0  0  0  0  0  0  0  0  0  0
    2.1400    8.2428   -1.5047 H   0  0  0  0  0  0  0  0  0  0  0  0
    3.0912    6.0969   -2.3476 H   0  0  0  0  0  0  0  0  0  0  0  0
    2.9255    5.0383    0.5384 H   0  0  0  0  0  0  0  0  0  0  0  0
    4.4443    5.6982   -0.1369 H   0  0  0  0  0  0  0  0  0  0  0  0
    4.3498    3.4936   -0.3881 H   0  0  0  0  0  0  0  0  0  0  0  0
    1.4020    3.7286   -1.3734 H   0  0  0  0  0  0  0  0  0  0  0  0
    1.7967    2.4055   -3.3135 H   0  0  0  0  0  0  0  0  0  0  0  0
    3.2006    3.2795   -5.0828 H   0  0  0  0  0  0  0  0  0  0  0  0
    1.9381    2.3027   -5.8590 H   0  0  0  0  0  0  0  0  0  0  0  0
    1.8484    5.1083   -5.4399 H   0  0  0  0  0  0  0  0  0  0  0  0
   -0.5642    3.6541   -4.8583 H   0  0  0  0  0  0  0  0  0  0  0  0
   -1.3464    1.5204   -4.6497 H   0  0  0  0  0  0  0  0  0  0  0  0
   -0.6313    2.2286   -2.1494 H   0  0  0  0  0  0  0  0  0  0  0  0
   -2.6992    3.2505   -2.1749 H   0  0  0  0  0  0  0  0  0  0  0  0
   -0.9456    5.2351   -2.6736 H   0  0  0  0  0  0  0  0  0  0  0  0
   -0.7904    5.2102   -0.3731 H   0  0  0  0  0  0  0  0  0  0  0  0
  1  2  1  0  0  0  0
  1 18  1  0  0  0  0
  2  3  1  0  0  0  0
  2 19  1  0  0  0  0
  2 20  1  0  0  0  0
  3  4  1  0  0  0  0
  3  6  1  0  0  0  0
  3 21  1  0  0  0  0
  4  5  1  0  0  0  0
  4 22  1  0  0  0  0
  4 23  1  0  0  0  0
  5 24  1  0  0  0  0
  7  8  1  0  0  0  0
  7 16  1  0  0  0  0
  7  6  1  0  0  0  0
  7 25  1  1  0  0  0
  8  9  1  0  0  0  0
  9 12  1  0  0  0  0
  9 10  1  0  0  0  0
  9 26  1  1  0  0  0
 10 11  1  0  0  0  0
 10 27  1  0  0  0  0
 10 28  1  0  0  0  0
 11 29  1  0  0  0  0
 12 13  1  0  0  0  0
 12 14  1  0  0  0  0
 12 30  1  6  0  0  0
 13 31  1  0  0  0  0
 14 15  1  0  0  0  0
 14 16  1  0  0  0  0
 14 32  1  1  0  0  0
 15 33  1  0  0  0  0
 16 17  1  0  0  0  0
 16 34  1  6  0  0  0
 17 35  1  0  0  0  0
M  END
$$$$
