CHEBI:17282
 OpenBabel04242416113D

 25 26  0  0  0  0  0  0  0  0999 V2000
    1.4444   -4.8431    3.6143 O   0  0  0  0  0  0  0  0  0  0  0  0
    2.6873   -4.6948    3.8589 C   0  0  0  0  0  0  0  0  0  0  0  0
    3.2520   -4.1777    4.8556 O   0  5  0  0  0  0  0  0  0  0  0  0
    3.5915   -5.3105    2.7487 C   0  0  0  0  0  0  0  0  0  0  0  0
    2.7195   -5.8490    1.7000 O   0  0  0  0  0  0  0  0  0  0  0  0
    4.5301   -4.3108    2.0907 C   0  0  0  0  0  0  0  0  0  0  0  0
    5.7900   -3.9017    2.8077 C   0  0  0  0  0  0  0  0  0  0  0  0
    6.3074   -2.6171    2.7654 C   0  0  0  0  0  0  0  0  0  0  0  0
    7.4507   -2.5792    3.5077 N   0  0  0  0  0  0  0  0  0  0  0  0
    7.7300   -3.8222    4.0188 C   0  0  0  0  0  0  0  0  0  0  0  0
    8.7965   -4.2374    4.8282 C   0  0  0  0  0  0  0  0  0  0  0  0
    8.8266   -5.5735    5.2315 C   0  0  0  0  0  0  0  0  0  0  0  0
    7.8349   -6.4594    4.8262 C   0  0  0  0  0  0  0  0  0  0  0  0
    6.7851   -6.0291    4.0044 C   0  0  0  0  0  0  0  0  0  0  0  0
    6.7095   -4.6799    3.5953 C   0  0  0  0  0  0  0  0  0  0  0  0
    4.1058   -6.1765    3.1621 H   0  0  0  0  0  0  0  0  0  0  0  0
    1.8233   -5.6753    2.0884 H   0  0  0  0  0  0  0  0  0  0  0  0
    3.9524   -3.4039    1.8591 H   0  0  0  0  0  0  0  0  0  0  0  0
    4.8362   -4.7032    1.1108 H   0  0  0  0  0  0  0  0  0  0  0  0
    5.9324   -1.7261    2.2809 H   0  0  0  0  0  0  0  0  0  0  0  0
    8.0110   -1.7560    3.6676 H   0  0  0  0  0  0  0  0  0  0  0  0
    9.5652   -3.5429    5.1477 H   0  0  0  0  0  0  0  0  0  0  0  0
    9.6278   -5.9221    5.8768 H   0  0  0  0  0  0  0  0  0  0  0  0
    7.8592   -7.4939    5.1570 H   0  0  0  0  0  0  0  0  0  0  0  0
    6.0236   -6.7415    3.7090 H   0  0  0  0  0  0  0  0  0  0  0  0
  1  2  2  0  0  0  0
  2  3  1  0  0  0  0
  2  4  1  0  0  0  0
  4  5  1  0  0  0  0
  4  6  1  0  0  0  0
  4 16  1  0  0  0  0
  5 17  1  0  0  0  0
  6  7  1  0  0  0  0
  6 18  1  0  0  0  0
  6 19  1  0  0  0  0
  7  8  2  0  0  0  0
  7 15  1  0  0  0  0
  8  9  1  0  0  0  0
  8 20  1  0  0  0  0
  9 10  1  0  0  0  0
  9 21  1  0  0  0  0
 10 11  1  0  0  0  0
 10 15  2  0  0  0  0
 11 12  2  0  0  0  0
 11 22  1  0  0  0  0
 12 13  1  0  0  0  0
 12 23  1  0  0  0  0
 13 14  2  0  0  0  0
 13 24  1  0  0  0  0
 14 15  1  0  0  0  0
 14 25  1  0  0  0  0
M  CHG  1   3  -1
M  END
$$$$
