CHEBI:16802
 OpenBabel04242415163D

 28 27  0  0  1  0  0  0  0  0999 V2000
    9.3368   -0.7441   -3.6191 O   0  0  0  0  0  0  0  0  0  0  0  0
    8.5442   -0.7739   -4.5663 C   0  0  0  0  0  0  0  0  0  0  0  0
    8.8218   -1.6363   -5.7894 C   0  0  0  0  0  0  0  0  0  0  0  0
    9.8606   -2.5752   -5.5375 O   0  0  0  0  0  0  0  0  0  0  0  0
    7.3076    0.1141   -4.6187 C   0  0  1  0  0  0  0  0  0  0  0  0
    7.7093    1.3460   -5.2390 O   0  0  0  0  0  0  0  0  0  0  0  0
    6.7396    0.3599   -3.2071 C   0  0  2  0  0  0  0  0  0  0  0  0
    5.5733    1.2033   -3.2855 O   0  0  0  0  0  0  0  0  0  0  0  0
    6.3872   -0.9029   -2.3866 C   0  0  2  0  0  0  0  0  0  0  0  0
    5.8054   -0.4503   -1.1475 O   0  0  0  0  0  0  0  0  0  0  0  0
    5.4452   -1.9245   -3.0492 C   0  0  2  0  0  0  0  0  0  0  0  0
    6.0504   -2.4888   -4.2179 O   0  0  0  0  0  0  0  0  0  0  0  0
    4.0573   -1.3920   -3.4184 C   0  0  0  0  0  0  0  0  0  0  0  0
    3.3037   -2.4882   -3.9539 O   0  0  0  0  0  0  0  0  0  0  0  0
    9.1295   -0.9909   -6.6160 H   0  0  0  0  0  0  0  0  0  0  0  0
    7.9239   -2.1907   -6.0699 H   0  0  0  0  0  0  0  0  0  0  0  0
   10.4160   -2.1840   -4.8340 H   0  0  0  0  0  0  0  0  0  0  0  0
    6.5487   -0.3203   -5.2740 H   0  0  0  0  0  0  0  0  0  0  0  0
    8.1239    1.8990   -4.5524 H   0  0  0  0  0  0  0  0  0  0  0  0
    7.4615    0.9514   -2.6283 H   0  0  0  0  0  0  0  0  0  0  0  0
    5.2624    1.2821   -2.3602 H   0  0  0  0  0  0  0  0  0  0  0  0
    7.3235   -1.4143   -2.1348 H   0  0  0  0  0  0  0  0  0  0  0  0
    5.8844   -1.1870   -0.5129 H   0  0  0  0  0  0  0  0  0  0  0  0
    5.3042   -2.7597   -2.3512 H   0  0  0  0  0  0  0  0  0  0  0  0
    5.3436   -3.0439   -4.6130 H   0  0  0  0  0  0  0  0  0  0  0  0
    4.1082   -0.6340   -4.2038 H   0  0  0  0  0  0  0  0  0  0  0  0
    3.5300   -0.9986   -2.5447 H   0  0  0  0  0  0  0  0  0  0  0  0
    2.4188   -2.1386   -4.1643 H   0  0  0  0  0  0  0  0  0  0  0  0
  1  2  2  0  0  0  0
  2  3  1  0  0  0  0
  2  5  1  0  0  0  0
  3  4  1  0  0  0  0
  3 15  1  0  0  0  0
  3 16  1  0  0  0  0
  4 17  1  0  0  0  0
  5  6  1  0  0  0  0
  5 18  1  1  0  0  0
  6 19  1  0  0  0  0
  7  8  1  0  0  0  0
  7  5  1  0  0  0  0
  7 20  1  6  0  0  0
  8 21  1  0  0  0  0
  9 10  1  0  0  0  0
  9  7  1  0  0  0  0
  9 22  1  6  0  0  0
 10 23  1  0  0  0  0
 11 13  1  0  0  0  0
 11 12  1  0  0  0  0
 11  9  1  0  0  0  0
 11 24  1  1  0  0  0
 12 25  1  0  0  0  0
 13 14  1  0  0  0  0
 13 26  1  0  0  0  0
 13 27  1  0  0  0  0
 14 28  1  0  0  0  0
M  END
$$$$
