CHEBI:16154
 OpenBabel04242413553D

 25 24  0  0  1  0  0  0  0  0999 V2000
    2.1156    1.1735   -3.5263 O   0  0  0  0  0  0  0  0  0  0  0  0
    2.8260    0.3977   -2.8956 C   0  0  0  0  0  0  0  0  0  0  0  0
    2.9837    0.5012   -1.5632 O   0  0  0  0  0  0  0  0  0  0  0  0
    3.5257   -0.7855   -3.5750 C   0  0  1  0  0  0  0  0  0  0  0  0
    3.3236   -0.6745   -5.0064 O   0  0  0  0  0  0  0  0  0  0  0  0
    5.0492   -0.7940   -3.3418 C   0  0  1  0  0  0  0  0  0  0  0  0
    5.7147   -1.3306   -4.4964 O   0  0  0  0  0  0  0  0  0  0  0  0
    5.4480   -1.6293   -2.1153 C   0  0  2  0  0  0  0  0  0  0  0  0
    4.5962   -1.3145   -0.9926 O   0  0  0  0  0  0  0  0  0  0  0  0
    6.9000   -1.4161   -1.6566 C   0  0  1  0  0  0  0  0  0  0  0  0
    7.0598   -2.1850   -0.4406 O   0  0  0  0  0  0  0  0  0  0  0  0
    7.9782   -1.8404   -2.6532 C   0  0  0  0  0  0  0  0  0  0  0  0
    9.2466   -1.7637   -1.9878 O   0  0  0  0  0  0  0  0  0  0  0  0
    3.5390   -0.2166   -1.1646 H   0  0  0  0  0  0  0  0  0  0  0  0
    3.0439   -1.7175   -3.2639 H   0  0  0  0  0  0  0  0  0  0  0  0
    2.4936   -0.1619   -5.1199 H   0  0  0  0  0  0  0  0  0  0  0  0
    5.4015    0.2375   -3.2210 H   0  0  0  0  0  0  0  0  0  0  0  0
    5.0964   -1.1648   -5.2447 H   0  0  0  0  0  0  0  0  0  0  0  0
    5.2950   -2.6954   -2.3269 H   0  0  0  0  0  0  0  0  0  0  0  0
    5.0528   -1.7584   -0.2360 H   0  0  0  0  0  0  0  0  0  0  0  0
    7.0567   -0.3736   -1.3560 H   0  0  0  0  0  0  0  0  0  0  0  0
    8.0246   -2.3542   -0.3732 H   0  0  0  0  0  0  0  0  0  0  0  0
    8.0133   -1.2019   -3.5393 H   0  0  0  0  0  0  0  0  0  0  0  0
    7.8416   -2.8818   -2.9592 H   0  0  0  0  0  0  0  0  0  0  0  0
    9.5277   -0.8310   -2.0104 H   0  0  0  0  0  0  0  0  0  0  0  0
  1  2  2  0  0  0  0
  2  3  1  0  0  0  0
  2  4  1  0  0  0  0
  3 14  1  0  0  0  0
  4  5  1  0  0  0  0
  4  6  1  0  0  0  0
  4 15  1  1  0  0  0
  5 16  1  0  0  0  0
  6  7  1  0  0  0  0
  6 17  1  6  0  0  0
  7 18  1  0  0  0  0
  8 10  1  0  0  0  0
  8  9  1  0  0  0  0
  8  6  1  0  0  0  0
  8 19  1  6  0  0  0
  9 20  1  0  0  0  0
 10 11  1  0  0  0  0
 10 12  1  0  0  0  0
 10 21  1  1  0  0  0
 11 22  1  0  0  0  0
 12 13  1  0  0  0  0
 12 23  1  0  0  0  0
 12 24  1  0  0  0  0
 13 25  1  0  0  0  0
M  END
$$$$
