CHEBI:16973
 OpenBabel04242415373D

 54 57  0  0  1  0  0  0  0  0999 V2000
    2.8396   -0.7694   -1.9327 C   0  0  0  0  0  0  0  0  0  0  0  0
    2.8202   -0.7084   -0.3837 C   0  0  2  0  0  0  0  0  0  0  0  0
    2.0246   -1.8985    0.1711 C   0  0  0  0  0  0  0  0  0  0  0  0
    0.5305   -1.8067   -0.1902 C   0  0  0  0  0  0  0  0  0  0  0  0
   -0.1286   -0.4509    0.1832 C   0  0  1  0  0  0  0  0  0  0  0  0
    0.7269    0.7689   -0.2784 C   0  0  1  0  0  0  0  0  0  0  0  0
    0.1225    2.0651    0.2770 C   0  0  0  0  0  0  0  0  0  0  0  0
   -1.3133    2.2461   -0.1999 C   0  0  0  0  0  0  0  0  0  0  0  0
   -2.1816    1.0529    0.1250 C   0  0  0  0  0  0  0  0  0  0  0  0
   -3.3838    1.2462    0.6968 C   0  0  0  0  0  0  0  0  0  0  0  0
   -4.3326    0.1312    0.9214 C   0  0  0  0  0  0  0  0  0  0  0  0
   -5.4172    0.3589    1.4506 O   0  0  0  0  0  0  0  0  0  0  0  0
   -3.9634   -1.2306    0.3958 C   0  0  0  0  0  0  0  0  0  0  0  0
   -2.4569   -1.4390    0.4619 C   0  0  0  0  0  0  0  0  0  0  0  0
   -1.6383   -0.3298   -0.2623 C   0  0  2  0  0  0  0  0  0  0  0  0
   -1.8061   -0.4999   -1.7898 C   0  0  0  0  0  0  0  0  0  0  0  0
    2.1739    0.5750    0.1850 C   0  0  2  0  0  0  0  0  0  0  0  0
    3.1916    1.6603   -0.1412 C   0  0  0  0  0  0  0  0  0  0  0  0
    4.5461    0.9656    0.0655 C   0  0  0  0  0  0  0  0  0  0  0  0
    4.2548   -0.5515    0.1788 C   0  0  2  0  0  0  0  0  0  0  0  0
    5.3204   -1.4031   -0.5026 C   0  0  0  0  0  0  0  0  0  0  0  0
    5.9442   -1.0283   -1.4989 O   0  0  0  0  0  0  0  0  0  0  0  0
    5.6005   -2.7748    0.1000 C   0  0  0  0  0  0  0  0  0  0  0  0
    6.5458   -3.5017   -0.6718 O   0  0  0  0  0  0  0  0  0  0  0  0
    1.8421   -0.7018   -2.3745 H   0  0  0  0  0  0  0  0  0  0  0  0
    3.2672   -1.7186   -2.2760 H   0  0  0  0  0  0  0  0  0  0  0  0
    3.4364    0.0350   -2.3740 H   0  0  0  0  0  0  0  0  0  0  0  0
    2.1190   -1.9383    1.2641 H   0  0  0  0  0  0  0  0  0  0  0  0
    2.4261   -2.8445   -0.2091 H   0  0  0  0  0  0  0  0  0  0  0  0
    0.0153   -2.6235    0.3280 H   0  0  0  0  0  0  0  0  0  0  0  0
    0.4151   -2.0043   -1.2601 H   0  0  0  0  0  0  0  0  0  0  0  0
   -0.1245   -0.4200    1.2852 H   0  0  0  0  0  0  0  0  0  0  0  0
    0.7112    0.8427   -1.3708 H   0  0  0  0  0  0  0  0  0  0  0  0
    0.7112    2.9298   -0.0501 H   0  0  0  0  0  0  0  0  0  0  0  0
    0.1513    2.0570    1.3743 H   0  0  0  0  0  0  0  0  0  0  0  0
   -1.3199    2.4019   -1.2859 H   0  0  0  0  0  0  0  0  0  0  0  0
   -1.7175    3.1636    0.2452 H   0  0  0  0  0  0  0  0  0  0  0  0
   -3.7553    2.2285    0.9685 H   0  0  0  0  0  0  0  0  0  0  0  0
   -4.3418   -1.3274   -0.6266 H   0  0  0  0  0  0  0  0  0  0  0  0
   -4.4577   -1.9870    1.0155 H   0  0  0  0  0  0  0  0  0  0  0  0
   -2.2258   -2.4260    0.0440 H   0  0  0  0  0  0  0  0  0  0  0  0
   -2.1655   -1.4736    1.5212 H   0  0  0  0  0  0  0  0  0  0  0  0
   -2.8308   -0.2773   -2.1099 H   0  0  0  0  0  0  0  0  0  0  0  0
   -1.5903   -1.5251   -2.1079 H   0  0  0  0  0  0  0  0  0  0  0  0
   -1.1486    0.1658   -2.3572 H   0  0  0  0  0  0  0  0  0  0  0  0
    2.1502    0.4959    1.2849 H   0  0  0  0  0  0  0  0  0  0  0  0
    3.0909    2.5333    0.5115 H   0  0  0  0  0  0  0  0  0  0  0  0
    3.0913    2.0068   -1.1758 H   0  0  0  0  0  0  0  0  0  0  0  0
    5.0164    1.3181    0.9912 H   0  0  0  0  0  0  0  0  0  0  0  0
    5.2277    1.2219   -0.7520 H   0  0  0  0  0  0  0  0  0  0  0  0
    4.2705   -0.8077    1.2473 H   0  0  0  0  0  0  0  0  0  0  0  0
    4.6780   -3.3561    0.1418 H   0  0  0  0  0  0  0  0  0  0  0  0
    6.0052   -2.6438    1.1069 H   0  0  0  0  0  0  0  0  0  0  0  0
    6.8885   -2.8765   -1.3443 H   0  0  0  0  0  0  0  0  0  0  0  0
  1 25  1  0  0  0  0
  1 26  1  0  0  0  0
  1 27  1  0  0  0  0
  2  1  1  6  0  0  0
  2  3  1  0  0  0  0
  2 17  1  0  0  0  0
  2 20  1  0  0  0  0
  3  4  1  0  0  0  0
  3 28  1  0  0  0  0
  3 29  1  0  0  0  0
  4  5  1  0  0  0  0
  4 30  1  0  0  0  0
  4 31  1  0  0  0  0
  5  6  1  0  0  0  0
  5 15  1  0  0  0  0
  5 32  1  1  0  0  0
  6  7  1  0  0  0  0
  6 17  1  0  0  0  0
  6 33  1  6  0  0  0
  7  8  1  0  0  0  0
  7 34  1  0  0  0  0
  7 35  1  0  0  0  0
  8  9  1  0  0  0  0
  8 36  1  0  0  0  0
  8 37  1  0  0  0  0
  9 10  2  0  0  0  0
  9 15  1  0  0  0  0
 10 11  1  0  0  0  0
 10 38  1  0  0  0  0
 11 12  2  0  0  0  0
 11 13  1  0  0  0  0
 13 14  1  0  0  0  0
 13 39  1  0  0  0  0
 13 40  1  0  0  0  0
 14 15  1  0  0  0  0
 14 41  1  0  0  0  0
 14 42  1  0  0  0  0
 15 16  1  6  0  0  0
 16 43  1  0  0  0  0
 16 44  1  0  0  0  0
 16 45  1  0  0  0  0
 17 18  1  0  0  0  0
 17 46  1  1  0  0  0
 18 19  1  0  0  0  0
 18 47  1  0  0  0  0
 18 48  1  0  0  0  0
 19 20  1  0  0  0  0
 19 49  1  0  0  0  0
 19 50  1  0  0  0  0
 20 21  1  0  0  0  0
 20 51  1  1  0  0  0
 21 22  2  0  0  0  0
 21 23  1  0  0  0  0
 23 24  1  0  0  0  0
 23 52  1  0  0  0  0
 23 53  1  0  0  0  0
 24 54  1  0  0  0  0
M  END
$$$$
