CHEBI:17318
 OpenBabel04242416163D

 21 21  0  0  0  0  0  0  0  0999 V2000
    4.6772   -0.4824   -0.6313 O   0  0  0  0  0  0  0  0  0  0  0  0
    4.7973   -1.1211    0.4598 C   0  0  0  0  0  0  0  0  0  0  0  0
    4.0466   -1.1089    1.4722 O   0  5  0  0  0  0  0  0  0  0  0  0
    5.9951   -2.0466    0.5338 C   0  0  0  0  0  0  0  0  0  0  0  0
    7.2968   -1.3855    0.1444 C   0  0  0  0  0  0  0  0  0  0  0  0
    8.3539   -1.7662    0.6532 O   0  0  0  0  0  0  0  0  0  0  0  0
    7.2022   -0.4572   -0.8714 N   0  0  0  0  0  0  0  0  0  0  0  0
    8.2183    0.2759   -1.5029 C   0  0  0  0  0  0  0  0  0  0  0  0
    9.5778    0.1133   -1.2343 C   0  0  0  0  0  0  0  0  0  0  0  0
   10.5311    0.8810   -1.9113 C   0  0  0  0  0  0  0  0  0  0  0  0
   10.1306    1.8184   -2.8648 C   0  0  0  0  0  0  0  0  0  0  0  0
   11.3626    2.7300   -3.6646 Cl  0  0  0  0  0  0  0  0  0  0  0  0
    8.7703    1.9873   -3.1404 C   0  0  0  0  0  0  0  0  0  0  0  0
    8.2011    3.1275   -4.3098 Cl  0  0  0  0  0  0  0  0  0  0  0  0
    7.8208    1.2174   -2.4605 C   0  0  0  0  0  0  0  0  0  0  0  0
    5.8299   -2.9009   -0.1319 H   0  0  0  0  0  0  0  0  0  0  0  0
    6.1008   -2.4253    1.5572 H   0  0  0  0  0  0  0  0  0  0  0  0
    6.2265   -0.2390   -1.1350 H   0  0  0  0  0  0  0  0  0  0  0  0
    9.9253   -0.6075   -0.5002 H   0  0  0  0  0  0  0  0  0  0  0  0
   11.5839    0.7365   -1.6838 H   0  0  0  0  0  0  0  0  0  0  0  0
    6.7616    1.3529   -2.6734 H   0  0  0  0  0  0  0  0  0  0  0  0
  1  2  2  0  0  0  0
  2  3  1  0  0  0  0
  2  4  1  0  0  0  0
  4  5  1  0  0  0  0
  4 16  1  0  0  0  0
  4 17  1  0  0  0  0
  5  6  2  0  0  0  0
  5  7  1  0  0  0  0
  7  8  1  0  0  0  0
  7 18  1  0  0  0  0
  8  9  1  0  0  0  0
  8 15  2  0  0  0  0
  9 10  2  0  0  0  0
  9 19  1  0  0  0  0
 10 11  1  0  0  0  0
 10 20  1  0  0  0  0
 11 12  1  0  0  0  0
 11 13  2  0  0  0  0
 13 14  1  0  0  0  0
 13 15  1  0  0  0  0
 15 21  1  0  0  0  0
M  CHG  1   3  -1
M  END
$$$$
