CHEBI:9334
 OpenBabel04242411393D

 42 44  0  0  0  0  0  0  0  0999 V2000
    5.5372    2.0017   -2.0497 O   0  0  0  0  0  0  0  0  0  0  0  0
    4.7748    2.7510   -2.6400 C   0  0  0  0  0  0  0  0  0  0  0  0
    3.7773    2.2904   -3.4227 O   0  0  0  0  0  0  0  0  0  0  0  0
    4.8826    4.2376   -2.5497 C   0  0  0  0  0  0  0  0  0  0  0  0
    5.9402    4.7544   -1.7816 C   0  0  0  0  0  0  0  0  0  0  0  0
    6.1301    6.1375   -1.6317 C   0  0  0  0  0  0  0  0  0  0  0  0
    7.1879    6.7258   -0.9033 N   0  0  0  0  0  0  0  0  0  0  0  0
    7.7573    5.9211   -0.1391 N   0  0  0  0  0  0  0  0  0  0  0  0
    8.8134    6.5118    0.5812 C   0  0  0  0  0  0  0  0  0  0  0  0
    8.7401    7.7989    1.1384 C   0  0  0  0  0  0  0  0  0  0  0  0
    9.7826    8.3014    1.9218 C   0  0  0  0  0  0  0  0  0  0  0  0
   10.8986    7.4991    2.1732 C   0  0  0  0  0  0  0  0  0  0  0  0
   12.1608    8.0853    3.2849 S   0  0  0  0  0  0  0  0  0  0  0  0
   13.1830    7.0627    3.3784 O   0  0  0  0  0  0  0  0  0  0  0  0
   12.4890    9.4364    2.8838 O   0  0  0  0  0  0  0  0  0  0  0  0
   11.3789    8.1922    4.7726 N   0  0  0  0  0  0  0  0  0  0  0  0
   10.5790    7.0956    5.1414 C   0  0  0  0  0  0  0  0  0  0  0  0
   11.0860    5.8350    5.4010 C   0  0  0  0  0  0  0  0  0  0  0  0
   10.1775    4.8129    5.6565 C   0  0  0  0  0  0  0  0  0  0  0  0
    8.8143    5.0928    5.6401 C   0  0  0  0  0  0  0  0  0  0  0  0
    8.4138    6.3938    5.3792 C   0  0  0  0  0  0  0  0  0  0  0  0
    9.2709    7.4084    5.1321 N   0  0  0  0  0  0  0  0  0  0  0  0
   11.0050    6.2272    1.6068 C   0  0  0  0  0  0  0  0  0  0  0  0
    9.9598    5.7406    0.8178 C   0  0  0  0  0  0  0  0  0  0  0  0
    5.2311    7.0000   -2.2711 C   0  0  0  0  0  0  0  0  0  0  0  0
    4.1740    6.5071   -3.0411 C   0  0  0  0  0  0  0  0  0  0  0  0
    4.0061    5.1299   -3.1803 C   0  0  0  0  0  0  0  0  0  0  0  0
    2.9739    4.6556   -3.9488 O   0  0  0  0  0  0  0  0  0  0  0  0
    3.2472    3.0159   -3.8210 H   0  0  0  0  0  0  0  0  0  0  0  0
    6.6293    4.0624   -1.2993 H   0  0  0  0  0  0  0  0  0  0  0  0
    7.8526    8.4070    0.9825 H   0  0  0  0  0  0  0  0  0  0  0  0
    9.6985    9.2925    2.3604 H   0  0  0  0  0  0  0  0  0  0  0  0
   10.8698    9.0684    4.8609 H   0  0  0  0  0  0  0  0  0  0  0  0
   12.1535    5.6445    5.3975 H   0  0  0  0  0  0  0  0  0  0  0  0
   10.5292    3.8049    5.8586 H   0  0  0  0  0  0  0  0  0  0  0  0
    8.0809    4.3152    5.8254 H   0  0  0  0  0  0  0  0  0  0  0  0
    7.3604    6.6594    5.3548 H   0  0  0  0  0  0  0  0  0  0  0  0
   11.8749    5.6010    1.7919 H   0  0  0  0  0  0  0  0  0  0  0  0
   10.0282    4.7402    0.3953 H   0  0  0  0  0  0  0  0  0  0  0  0
    5.3631    8.0757   -2.1689 H   0  0  0  0  0  0  0  0  0  0  0  0
    3.5035    7.2137   -3.5222 H   0  0  0  0  0  0  0  0  0  0  0  0
    2.4797    5.4146   -4.3142 H   0  0  0  0  0  0  0  0  0  0  0  0
  1  2  2  0  0  0  0
  2  3  1  0  0  0  0
  2  4  1  0  0  0  0
  3 29  1  0  0  0  0
  4  5  1  0  0  0  0
  4 27  2  0  0  0  0
  5  6  2  0  0  0  0
  5 30  1  0  0  0  0
  6  7  1  0  0  0  0
  6 25  1  0  0  0  0
  7  8  2  0  0  0  0
  8  9  1  0  0  0  0
  9 10  1  0  0  0  0
  9 24  2  0  0  0  0
 10 11  2  0  0  0  0
 10 31  1  0  0  0  0
 11 12  1  0  0  0  0
 11 32  1  0  0  0  0
 12 13  1  0  0  0  0
 12 23  2  0  0  0  0
 13 14  2  0  0  0  0
 13 15  2  0  0  0  0
 13 16  1  0  0  0  0
 16 17  1  0  0  0  0
 16 33  1  0  0  0  0
 17 18  1  0  0  0  0
 17 22  2  0  0  0  0
 18 19  2  0  0  0  0
 18 34  1  0  0  0  0
 19 20  1  0  0  0  0
 19 35  1  0  0  0  0
 20 21  2  0  0  0  0
 20 36  1  0  0  0  0
 21 22  1  0  0  0  0
 21 37  1  0  0  0  0
 23 24  1  0  0  0  0
 23 38  1  0  0  0  0
 24 39  1  0  0  0  0
 25 26  2  0  0  0  0
 25 40  1  0  0  0  0
 26 27  1  0  0  0  0
 26 41  1  0  0  0  0
 27 28  1  0  0  0  0
 28 42  1  0  0  0  0
M  END
$$$$
