CHEBI:15352
 OpenBabel04242411453D

 50 51  0  0  1  0  0  0  0  0999 V2000
    6.1647    0.0891    2.9102 C   0  0  0  0  0  0  0  0  0  0  0  0
    5.1617    0.2191    1.8062 C   0  0  0  0  0  0  0  0  0  0  0  0
    3.9878   -0.1122    1.8994 O   0  0  0  0  0  0  0  0  0  0  0  0
    5.7467    0.7549    0.7045 O   0  0  0  0  0  0  0  0  0  0  0  0
    4.8937    0.8122   -0.4441 C   0  0  2  0  0  0  0  0  0  0  0  0
    4.8632   -0.4699   -1.0669 O   0  0  0  0  0  0  0  0  0  0  0  0
    3.9658   -0.4984   -2.1835 C   0  0  2  0  0  0  0  0  0  0  0  0
    3.9056   -1.9526   -2.6692 C   0  0  0  0  0  0  0  0  0  0  0  0
    3.4245   -2.7945   -1.6203 O   0  0  0  0  0  0  0  0  0  0  0  0
    4.4129    0.4548   -3.3113 C   0  0  1  0  0  0  0  0  0  0  0  0
    3.3557    0.4166   -4.2820 O   0  0  0  0  0  0  0  0  0  0  0  0
    3.5380    1.1874   -5.4708 C   0  0  1  0  0  0  0  0  0  0  0  0
    4.6693    0.7487   -6.2249 O   0  0  0  0  0  0  0  0  0  0  0  0
    4.5842   -0.6223   -6.6513 C   0  0  2  0  0  0  0  0  0  0  0  0
    5.8450   -0.9014   -7.4777 C   0  0  0  0  0  0  0  0  0  0  0  0
    6.9997   -0.6308   -6.6799 O   0  0  0  0  0  0  0  0  0  0  0  0
    3.3149   -0.9060   -7.4664 C   0  0  1  0  0  0  0  0  0  0  0  0
    3.1469   -2.3056   -7.7228 O   0  0  0  0  0  0  0  0  0  0  0  0
    2.0667   -0.3802   -6.7507 C   0  0  2  0  0  0  0  0  0  0  0  0
    0.9250   -0.4704   -7.6205 O   0  0  0  0  0  0  0  0  0  0  0  0
    2.2669    1.0780   -6.3396 C   0  0  1  0  0  0  0  0  0  0  0  0
    1.0985    1.5501   -5.6555 O   0  0  0  0  0  0  0  0  0  0  0  0
    4.6688    1.8610   -2.7343 C   0  0  2  0  0  0  0  0  0  0  0  0
    5.3980    2.6664   -3.6777 O   0  0  0  0  0  0  0  0  0  0  0  0
    5.4810    1.8318   -1.4319 C   0  0  1  0  0  0  0  0  0  0  0  0
    5.5244    3.1709   -0.9037 O   0  0  0  0  0  0  0  0  0  0  0  0
    5.6740   -0.3185    3.7989 H   0  0  0  0  0  0  0  0  0  0  0  0
    6.5738    1.0714    3.1585 H   0  0  0  0  0  0  0  0  0  0  0  0
    6.9608   -0.5955    2.6068 H   0  0  0  0  0  0  0  0  0  0  0  0
    3.8851    1.1310   -0.1460 H   0  0  0  0  0  0  0  0  0  0  0  0
    2.9630   -0.2268   -1.8250 H   0  0  0  0  0  0  0  0  0  0  0  0
    3.2353   -2.0704   -3.5252 H   0  0  0  0  0  0  0  0  0  0  0  0
    4.9008   -2.3156   -2.9462 H   0  0  0  0  0  0  0  0  0  0  0  0
    3.9080   -2.5251   -0.8146 H   0  0  0  0  0  0  0  0  0  0  0  0
    5.3365    0.0800   -3.7703 H   0  0  0  0  0  0  0  0  0  0  0  0
    3.6612    2.2417   -5.2119 H   0  0  0  0  0  0  0  0  0  0  0  0
    4.6230   -1.2642   -5.7625 H   0  0  0  0  0  0  0  0  0  0  0  0
    5.8920   -1.9427   -7.8081 H   0  0  0  0  0  0  0  0  0  0  0  0
    5.8952   -0.2473   -8.3549 H   0  0  0  0  0  0  0  0  0  0  0  0
    6.8626    0.2696   -6.3228 H   0  0  0  0  0  0  0  0  0  0  0  0
    3.3829   -0.4181   -8.4466 H   0  0  0  0  0  0  0  0  0  0  0  0
    3.1356   -2.7789   -6.8701 H   0  0  0  0  0  0  0  0  0  0  0  0
    1.8211   -1.0031   -5.8820 H   0  0  0  0  0  0  0  0  0  0  0  0
    0.9743   -1.3540   -8.0374 H   0  0  0  0  0  0  0  0  0  0  0  0
    2.3795    1.6962   -7.2389 H   0  0  0  0  0  0  0  0  0  0  0  0
    0.3453    1.2255   -6.1890 H   0  0  0  0  0  0  0  0  0  0  0  0
    3.7146    2.3783   -2.5764 H   0  0  0  0  0  0  0  0  0  0  0  0
    5.7364    3.4373   -3.1788 H   0  0  0  0  0  0  0  0  0  0  0  0
    6.5218    1.5681   -1.6580 H   0  0  0  0  0  0  0  0  0  0  0  0
    4.6648    3.3725   -0.4923 H   0  0  0  0  0  0  0  0  0  0  0  0
  1  2  1  0  0  0  0
  1 27  1  0  0  0  0
  1 28  1  0  0  0  0
  1 29  1  0  0  0  0
  2  3  2  0  0  0  0
  2  4  1  0  0  0  0
  5  6  1  0  0  0  0
  5 25  1  0  0  0  0
  5  4  1  0  0  0  0
  5 30  1  1  0  0  0
  6  7  1  0  0  0  0
  7 10  1  0  0  0  0
  7  8  1  0  0  0  0
  7 31  1  1  0  0  0
  8  9  1  0  0  0  0
  8 32  1  0  0  0  0
  8 33  1  0  0  0  0
  9 34  1  0  0  0  0
 10 11  1  0  0  0  0
 10 23  1  0  0  0  0
 10 35  1  6  0  0  0
 11 12  1  0  0  0  0
 12 13  1  0  0  0  0
 12 21  1  0  0  0  0
 12 36  1  1  0  0  0
 13 14  1  0  0  0  0
 14 17  1  0  0  0  0
 14 15  1  0  0  0  0
 14 37  1  1  0  0  0
 15 16  1  0  0  0  0
 15 38  1  0  0  0  0
 15 39  1  0  0  0  0
 16 40  1  0  0  0  0
 17 18  1  0  0  0  0
 17 19  1  0  0  0  0
 17 41  1  6  0  0  0
 18 42  1  0  0  0  0
 19 20  1  0  0  0  0
 19 21  1  0  0  0  0
 19 43  1  1  0  0  0
 20 44  1  0  0  0  0
 21 22  1  0  0  0  0
 21 45  1  6  0  0  0
 22 46  1  0  0  0  0
 23 24  1  0  0  0  0
 23 25  1  0  0  0  0
 23 47  1  1  0  0  0
 24 48  1  0  0  0  0
 25 26  1  0  0  0  0
 25 49  1  6  0  0  0
 26 50  1  0  0  0  0
M  END
$$$$
