CHEBI:15577
 OpenBabel04242412493D

 79 83  0  0  1  0  0  0  0  0999 V2000
    1.7865    4.5559    3.7976 C   0  0  0  0  0  0  0  0  0  0  0  0
    2.1228    3.1308    3.3651 C   0  0  0  0  0  0  0  0  0  0  0  0
    3.1716    2.5107    4.2877 C   0  0  0  0  0  0  0  0  0  0  0  0
    0.8846    2.2513    3.1867 C   0  0  1  0  0  0  0  0  0  0  0  0
   -0.1714    2.1807    4.2799 C   0  0  0  0  0  0  0  0  0  0  0  0
    0.2676    1.3224    5.4699 C   0  0  0  0  0  0  0  0  0  0  0  0
   -0.7758    1.1876    6.6139 C   0  0  1  0  0  0  0  0  0  0  0  0
   -1.9634    0.3454    6.1423 C   0  0  0  0  0  0  0  0  0  0  0  0
   -0.0867    0.5932    7.8842 C   0  0  1  0  0  0  0  0  0  0  0  0
    1.0753    1.5106    8.3772 C   0  0  0  0  0  0  0  0  0  0  0  0
    1.1832    1.3457    9.8935 C   0  0  0  0  0  0  0  0  0  0  0  0
    0.2492    0.1885   10.2037 C   0  0  1  0  0  0  0  0  0  0  0  0
   -0.2175    0.0465   11.6533 C   0  0  2  0  0  0  0  0  0  0  0  0
    0.9761   -0.1205   12.6070 C   0  0  0  0  0  0  0  0  0  0  0  0
    0.5586   -0.5090   13.9910 C   0  0  0  0  0  0  0  0  0  0  0  0
   -0.6582   -0.9799   14.3137 C   0  0  0  0  0  0  0  0  0  0  0  0
   -0.9937   -1.2911   15.7566 C   0  0  0  0  0  0  0  0  0  0  0  0
   -1.6016   -2.6841   15.9297 C   0  0  1  0  0  0  0  0  0  0  0  0
   -2.0709   -2.8454   17.2680 O   0  0  0  0  0  0  0  0  0  0  0  0
   -2.7567   -2.9253   14.9606 C   0  0  0  0  0  0  0  0  0  0  0  0
   -2.3413   -2.6613   13.5119 C   0  0  0  0  0  0  0  0  0  0  0  0
   -1.7601   -1.2381   13.2708 C   0  0  1  0  0  0  0  0  0  0  0  0
   -2.8777   -0.1853   13.4748 C   0  0  0  0  0  0  0  0  0  0  0  0
   -1.1724   -1.1692   11.8007 C   0  0  1  0  0  0  0  0  0  0  0  0
   -2.2413   -1.2445   10.6779 C   0  0  0  0  0  0  0  0  0  0  0  0
   -1.7051   -0.9668    9.2592 C   0  0  0  0  0  0  0  0  0  0  0  0
   -0.9109    0.3515    9.1892 C   0  0  2  0  0  0  0  0  0  0  0  0
   -1.8338    1.5567    9.4889 C   0  0  0  0  0  0  0  0  0  0  0  0
    0.2961    2.4255    1.8777 O   0  0  0  0  0  0  0  0  0  0  0  0
    0.9528    1.1761    2.1011 C   0  0  2  0  0  0  0  0  0  0  0  0
    0.0553   -0.0060    2.0171 C   0  0  0  0  0  0  0  0  0  0  0  0
    2.6875    5.1788    3.8036 H   0  0  0  0  0  0  0  0  0  0  0  0
    1.3581    4.5856    4.8045 H   0  0  0  0  0  0  0  0  0  0  0  0
    1.0661    5.0111    3.1100 H   0  0  0  0  0  0  0  0  0  0  0  0
    2.6048    3.2152    2.3803 H   0  0  0  0  0  0  0  0  0  0  0  0
    2.9433    2.6793    5.3437 H   0  0  0  0  0  0  0  0  0  0  0  0
    4.1514    2.9665    4.1066 H   0  0  0  0  0  0  0  0  0  0  0  0
    3.2664    1.4327    4.1223 H   0  0  0  0  0  0  0  0  0  0  0  0
   -1.1007    1.7839    3.8604 H   0  0  0  0  0  0  0  0  0  0  0  0
   -0.4217    3.1903    4.6230 H   0  0  0  0  0  0  0  0  0  0  0  0
    1.1640    1.7834    5.8795 H   0  0  0  0  0  0  0  0  0  0  0  0
    0.5667    0.3257    5.1232 H   0  0  0  0  0  0  0  0  0  0  0  0
   -1.1459    2.1931    6.8523 H   0  0  0  0  0  0  0  0  0  0  0  0
   -1.6618   -0.6877    5.9418 H   0  0  0  0  0  0  0  0  0  0  0  0
   -2.4074    0.7498    5.2283 H   0  0  0  0  0  0  0  0  0  0  0  0
   -2.7667    0.3352    6.8810 H   0  0  0  0  0  0  0  0  0  0  0  0
    0.3612   -0.3682    7.5901 H   0  0  0  0  0  0  0  0  0  0  0  0
    0.8918    2.5653    8.1403 H   0  0  0  0  0  0  0  0  0  0  0  0
    2.0175    1.2232    7.8973 H   0  0  0  0  0  0  0  0  0  0  0  0
    0.8700    2.2644   10.4022 H   0  0  0  0  0  0  0  0  0  0  0  0
    2.2136    1.1355   10.1980 H   0  0  0  0  0  0  0  0  0  0  0  0
    0.8014   -0.7323    9.9511 H   0  0  0  0  0  0  0  0  0  0  0  0
   -0.7416    0.9638   11.9444 H   0  0  0  0  0  0  0  0  0  0  0  0
    1.5313    0.8232   12.6620 H   0  0  0  0  0  0  0  0  0  0  0  0
    1.6723   -0.8804   12.2307 H   0  0  0  0  0  0  0  0  0  0  0  0
    1.3127   -0.3713   14.7645 H   0  0  0  0  0  0  0  0  0  0  0  0
   -1.6854   -0.5307   16.1405 H   0  0  0  0  0  0  0  0  0  0  0  0
   -0.1087   -1.2127   16.4016 H   0  0  0  0  0  0  0  0  0  0  0  0
   -0.8266   -3.4423   15.7666 H   0  0  0  0  0  0  0  0  0  0  0  0
   -2.7597   -2.1769   17.4257 H   0  0  0  0  0  0  0  0  0  0  0  0
   -3.6174   -2.3023   15.2333 H   0  0  0  0  0  0  0  0  0  0  0  0
   -3.1068   -3.9598   15.0635 H   0  0  0  0  0  0  0  0  0  0  0  0
   -3.2121   -2.8318   12.8678 H   0  0  0  0  0  0  0  0  0  0  0  0
   -1.5948   -3.4163   13.2298 H   0  0  0  0  0  0  0  0  0  0  0  0
   -3.2083   -0.1200   14.5164 H   0  0  0  0  0  0  0  0  0  0  0  0
   -3.7709   -0.4277   12.8900 H   0  0  0  0  0  0  0  0  0  0  0  0
   -2.5504    0.8190   13.1881 H   0  0  0  0  0  0  0  0  0  0  0  0
   -0.5457   -2.0652   11.6603 H   0  0  0  0  0  0  0  0  0  0  0  0
   -3.0567   -0.5424   10.8704 H   0  0  0  0  0  0  0  0  0  0  0  0
   -2.6965   -2.2423   10.6789 H   0  0  0  0  0  0  0  0  0  0  0  0
   -2.5530   -0.9595    8.5689 H   0  0  0  0  0  0  0  0  0  0  0  0
   -1.0681   -1.8069    8.9528 H   0  0  0  0  0  0  0  0  0  0  0  0
   -2.6649    1.6011    8.7782 H   0  0  0  0  0  0  0  0  0  0  0  0
   -1.3032    2.5119    9.4265 H   0  0  0  0  0  0  0  0  0  0  0  0
   -2.2813    1.5108   10.4852 H   0  0  0  0  0  0  0  0  0  0  0  0
    1.9016    1.0004    1.6084 H   0  0  0  0  0  0  0  0  0  0  0  0
   -0.9817    0.2256    2.2757 H   0  0  0  0  0  0  0  0  0  0  0  0
    0.4106   -0.7987    2.6816 H   0  0  0  0  0  0  0  0  0  0  0  0
    0.0569   -0.3974    0.9942 H   0  0  0  0  0  0  0  0  0  0  0  0
  1  2  1  0  0  0  0
  1 32  1  0  0  0  0
  1 33  1  0  0  0  0
  1 34  1  0  0  0  0
  2  3  1  0  0  0  0
  2 35  1  0  0  0  0
  3 36  1  0  0  0  0
  3 37  1  0  0  0  0
  3 38  1  0  0  0  0
  4  2  1  1  0  0  0
  4  5  1  0  0  0  0
  4 29  1  0  0  0  0
  4 30  1  0  0  0  0
  5  6  1  0  0  0  0
  5 39  1  0  0  0  0
  5 40  1  0  0  0  0
  6  7  1  0  0  0  0
  6 41  1  0  0  0  0
  6 42  1  0  0  0  0
  7  8  1  0  0  0  0
  7  9  1  0  0  0  0
  7 43  1  1  0  0  0
  8 44  1  0  0  0  0
  8 45  1  0  0  0  0
  8 46  1  0  0  0  0
  9 10  1  0  0  0  0
  9 27  1  0  0  0  0
  9 47  1  6  0  0  0
 10 11  1  0  0  0  0
 10 48  1  0  0  0  0
 10 49  1  0  0  0  0
 11 12  1  0  0  0  0
 11 50  1  0  0  0  0
 11 51  1  0  0  0  0
 12 13  1  0  0  0  0
 12 27  1  0  0  0  0
 12 52  1  6  0  0  0
 13 14  1  0  0  0  0
 13 24  1  0  0  0  0
 13 53  1  1  0  0  0
 14 15  1  0  0  0  0
 14 54  1  0  0  0  0
 14 55  1  0  0  0  0
 15 16  2  0  0  0  0
 15 56  1  0  0  0  0
 16 17  1  0  0  0  0
 16 22  1  0  0  0  0
 17 18  1  0  0  0  0
 17 57  1  0  0  0  0
 17 58  1  0  0  0  0
 18 19  1  0  0  0  0
 18 20  1  0  0  0  0
 18 59  1  6  0  0  0
 19 60  1  0  0  0  0
 20 21  1  0  0  0  0
 20 61  1  0  0  0  0
 20 62  1  0  0  0  0
 21 22  1  0  0  0  0
 21 63  1  0  0  0  0
 21 64  1  0  0  0  0
 22 23  1  1  0  0  0
 22 24  1  0  0  0  0
 23 65  1  0  0  0  0
 23 66  1  0  0  0  0
 23 67  1  0  0  0  0
 24 25  1  0  0  0  0
 24 68  1  6  0  0  0
 25 26  1  0  0  0  0
 25 69  1  0  0  0  0
 25 70  1  0  0  0  0
 26 27  1  0  0  0  0
 26 71  1  0  0  0  0
 26 72  1  0  0  0  0
 27 28  1  1  0  0  0
 28 73  1  0  0  0  0
 28 74  1  0  0  0  0
 28 75  1  0  0  0  0
 29 30  1  0  0  0  0
 30 31  1  0  0  0  0
 30 76  1  6  0  0  0
 31 77  1  0  0  0  0
 31 78  1  0  0  0  0
 31 79  1  0  0  0  0
M  END
$$$$
