CHEBI:2469
 OpenBabel04242410373D

 30 31  0  0  0  0  0  0  0  0999 V2000
   -0.5747   -1.1193    1.5970 N   0  0  0  0  0  0  0  0  0  0  0  0
    0.6865   -1.6206    1.8960 C   0  0  0  0  0  0  0  0  0  0  0  0
    0.9123   -2.0839    3.1470 N   0  0  0  0  0  0  0  0  0  0  0  0
    2.1330   -2.5899    3.4314 C   0  0  0  0  0  0  0  0  0  0  0  0
    3.2077   -2.6984    2.6233 N   0  0  0  0  0  0  0  0  0  0  0  0
    2.9350   -2.2030    1.4046 C   0  0  0  0  0  0  0  0  0  0  0  0
    1.7408   -1.6534    0.9680 C   0  0  0  0  0  0  0  0  0  0  0  0
    1.8440   -1.2295   -0.3428 N   0  0  0  0  0  0  0  0  0  0  0  0
    3.0780   -1.5279   -0.6940 C   0  0  0  0  0  0  0  0  0  0  0  0
    3.7659   -2.1356    0.3221 N   0  0  0  0  0  0  0  0  0  0  0  0
    5.1079   -2.6723    0.2441 C   0  0  0  0  0  0  0  0  0  0  0  0
    6.1568   -1.7398    0.8407 C   0  0  0  0  0  0  0  0  0  0  0  0
    6.2915   -0.5860    0.0063 O   0  0  0  0  0  0  0  0  0  0  0  0
    7.5127    0.1424    0.2272 C   0  0  0  0  0  0  0  0  0  0  0  0
    7.6852    0.7285    1.9067 P   0  0  0  0  0  0  0  0  0  0  0  0
    7.8914   -0.2778    2.9912 O   0  0  0  0  0  0  0  0  0  0  0  0
    8.8838    1.7952    1.8806 O   0  0  0  0  0  0  0  0  0  0  0  0
    6.4387    1.6885    2.2076 O   0  0  0  0  0  0  0  0  0  0  0  0
   -1.0714   -0.8219    2.4257 H   0  0  0  0  0  0  0  0  0  0  0  0
   -0.5753   -0.4982    0.7952 H   0  0  0  0  0  0  0  0  0  0  0  0
    2.2643   -2.9566    4.4457 H   0  0  0  0  0  0  0  0  0  0  0  0
    3.5212   -1.3337   -1.6629 H   0  0  0  0  0  0  0  0  0  0  0  0
    5.3206   -2.8657   -0.8137 H   0  0  0  0  0  0  0  0  0  0  0  0
    5.1056   -3.6331    0.7708 H   0  0  0  0  0  0  0  0  0  0  0  0
    7.1142   -2.2708    0.8899 H   0  0  0  0  0  0  0  0  0  0  0  0
    5.8636   -1.4269    1.8472 H   0  0  0  0  0  0  0  0  0  0  0  0
    7.4940    0.9993   -0.4531 H   0  0  0  0  0  0  0  0  0  0  0  0
    8.3629   -0.4858   -0.0577 H   0  0  0  0  0  0  0  0  0  0  0  0
    9.1833    2.0498    2.7730 H   0  0  0  0  0  0  0  0  0  0  0  0
    6.3268    1.8946    3.1533 H   0  0  0  0  0  0  0  0  0  0  0  0
  1  2  1  0  0  0  0
  1 19  1  0  0  0  0
  1 20  1  0  0  0  0
  2  3  1  0  0  0  0
  2  7  2  0  0  0  0
  3  4  2  0  0  0  0
  4  5  1  0  0  0  0
  4 21  1  0  0  0  0
  5  6  2  0  0  0  0
  6  7  1  0  0  0  0
  6 10  1  0  0  0  0
  7  8  1  0  0  0  0
  8  9  2  0  0  0  0
  9 10  1  0  0  0  0
  9 22  1  0  0  0  0
 10 11  1  0  0  0  0
 11 12  1  0  0  0  0
 11 23  1  0  0  0  0
 11 24  1  0  0  0  0
 12 13  1  0  0  0  0
 12 25  1  0  0  0  0
 12 26  1  0  0  0  0
 13 14  1  0  0  0  0
 14 15  1  0  0  0  0
 14 27  1  0  0  0  0
 14 28  1  0  0  0  0
 15 16  2  0  0  0  0
 15 17  1  0  0  0  0
 15 18  1  0  0  0  0
 17 29  1  0  0  0  0
 18 30  1  0  0  0  0
M  END
$$$$
