CHEBI:18400
 OpenBabel04252409343D

 13 13  0  0  0  0  0  0  0  0999 V2000
    1.0990   -0.0537   -0.4093 O   0  0  0  0  0  0  0  0  0  0  0  0
    2.2871   -0.0719   -0.1175 C   0  0  0  0  0  0  0  0  0  0  0  0
    3.0376    1.1842    0.0889 C   0  0  0  0  0  0  0  0  0  0  0  0
    4.3348    1.1790    0.4096 C   0  0  0  0  0  0  0  0  0  0  0  0
    5.0684   -0.0891    0.5700 C   0  0  0  0  0  0  0  0  0  0  0  0
    6.2580   -0.1210    0.8650 O   0  0  0  0  0  0  0  0  0  0  0  0
    4.3157   -1.3549    0.3606 C   0  0  0  0  0  0  0  0  0  0  0  0
    5.0041   -2.5451    0.5092 O   0  0  0  0  0  0  0  0  0  0  0  0
    3.0201   -1.3410    0.0405 C   0  0  0  0  0  0  0  0  0  0  0  0
    2.4775    2.1038   -0.0342 H   0  0  0  0  0  0  0  0  0  0  0  0
    4.8977    2.0913    0.5641 H   0  0  0  0  0  0  0  0  0  0  0  0
    5.9224   -2.2873    0.7415 H   0  0  0  0  0  0  0  0  0  0  0  0
    2.4584   -2.2535   -0.1150 H   0  0  0  0  0  0  0  0  0  0  0  0
  1  2  2  0  0  0  0
  2  3  1  0  0  0  0
  2  9  1  0  0  0  0
  3  4  2  0  0  0  0
  3 10  1  0  0  0  0
  4  5  1  0  0  0  0
  4 11  1  0  0  0  0
  5  6  2  0  0  0  0
  5  7  1  0  0  0  0
  7  8  1  0  0  0  0
  7  9  2  0  0  0  0
  8 12  1  0  0  0  0
  9 13  1  0  0  0  0
M  END
$$$$
