CHEBI:17294
 OpenBabel04242416133D

 49 52  0  0  1  0  0  0  0  0999 V2000
    1.4663   -1.2777   -0.1694 C   0  0  0  0  0  0  0  0  0  0  0  0
    2.8859   -0.8580    0.0633 C   0  0  0  0  0  0  0  0  0  0  0  0
    3.3295    0.3981    0.2511 C   0  0  0  0  0  0  0  0  0  0  0  0
    4.7948    0.5455    0.4438 C   0  0  0  0  0  0  0  0  0  0  0  0
    5.4121    1.6366    0.1552 N   0  3  0  0  0  0  0  0  0  0  0  0
    6.8437    1.8518    0.5882 C   0  0  0  0  0  0  0  0  0  0  0  0
    7.6282    2.7299   -0.3911 C   0  0  0  0  0  0  0  0  0  0  0  0
    6.8585    3.9644   -0.6903 C   0  0  0  0  0  0  0  0  0  0  0  0
    5.4796    3.9451   -0.7284 C   0  0  0  0  0  0  0  0  0  0  0  0
    5.0510    5.2047   -1.0575 N   0  0  0  0  0  0  0  0  0  0  0  0
    6.1379    6.0385   -1.2156 C   0  0  0  0  0  0  0  0  0  0  0  0
    6.1825    7.3969   -1.5503 C   0  0  0  0  0  0  0  0  0  0  0  0
    7.4402    7.9970   -1.6563 C   0  0  0  0  0  0  0  0  0  0  0  0
    8.6053    7.2664   -1.4371 C   0  0  0  0  0  0  0  0  0  0  0  0
    8.5455    5.9082   -1.1044 C   0  0  0  0  0  0  0  0  0  0  0  0
    7.2899    5.2815   -0.9900 C   0  0  0  0  0  0  0  0  0  0  0  0
    4.6299    2.7391   -0.5369 C   0  0  2  0  0  0  0  0  0  0  0  0
    3.3663    2.9666    0.2855 C   0  0  0  0  0  0  0  0  0  0  0  0
    2.5012    1.6784    0.3237 C   0  0  2  0  0  0  0  0  0  0  0  0
    1.5681    1.7232    1.5294 C   0  0  0  0  0  0  0  0  0  0  0  0
    0.2841    2.0972    1.3812 C   0  0  0  0  0  0  0  0  0  0  0  0
   -0.6723    2.2073    2.3506 O   0  0  0  0  0  0  0  0  0  0  0  0
    2.1773    1.3648    2.8466 C   0  0  0  0  0  0  0  0  0  0  0  0
    3.3890    1.2968    3.0046 O   0  0  0  0  0  0  0  0  0  0  0  0
    1.2258    1.0925    3.7702 O   0  0  0  0  0  0  0  0  0  0  0  0
    1.6750    0.6365    5.0538 C   0  0  0  0  0  0  0  0  0  0  0  0
    1.4123   -1.8960   -1.0712 H   0  0  0  0  0  0  0  0  0  0  0  0
    0.7862   -0.4347   -0.3090 H   0  0  0  0  0  0  0  0  0  0  0  0
    1.1118   -1.8743    0.6763 H   0  0  0  0  0  0  0  0  0  0  0  0
    3.5870   -1.6941    0.0588 H   0  0  0  0  0  0  0  0  0  0  0  0
    5.3571   -0.3056    0.8617 H   0  0  0  0  0  0  0  0  0  0  0  0
    7.3261    0.8740    0.6942 H   0  0  0  0  0  0  0  0  0  0  0  0
    6.7894    2.3243    1.5763 H   0  0  0  0  0  0  0  0  0  0  0  0
    7.8029    2.1840   -1.3266 H   0  0  0  0  0  0  0  0  0  0  0  0
    8.6066    2.9726    0.0374 H   0  0  0  0  0  0  0  0  0  0  0  0
    4.0945    5.5099   -1.1880 H   0  0  0  0  0  0  0  0  0  0  0  0
    5.2800    7.9739   -1.7273 H   0  0  0  0  0  0  0  0  0  0  0  0
    7.5101    9.0516   -1.9168 H   0  0  0  0  0  0  0  0  0  0  0  0
    9.5727    7.7561   -1.5283 H   0  0  0  0  0  0  0  0  0  0  0  0
    9.4651    5.3535   -0.9420 H   0  0  0  0  0  0  0  0  0  0  0  0
    4.3758    2.3503   -1.5327 H   0  0  0  0  0  0  0  0  0  0  0  0
    2.7648    3.7776   -0.1466 H   0  0  0  0  0  0  0  0  0  0  0  0
    3.6339    3.3030    1.2971 H   0  0  0  0  0  0  0  0  0  0  0  0
    1.8993    1.6943   -0.5975 H   0  0  0  0  0  0  0  0  0  0  0  0
   -0.1510    2.3803    0.4273 H   0  0  0  0  0  0  0  0  0  0  0  0
   -0.3210    1.8754    3.2012 H   0  0  0  0  0  0  0  0  0  0  0  0
    1.2263    1.2766    5.8181 H   0  0  0  0  0  0  0  0  0  0  0  0
    2.7620    0.6526    5.1710 H   0  0  0  0  0  0  0  0  0  0  0  0
    1.3131   -0.3854    5.1981 H   0  0  0  0  0  0  0  0  0  0  0  0
  1  2  1  0  0  0  0
  1 27  1  0  0  0  0
  1 28  1  0  0  0  0
  1 29  1  0  0  0  0
  2  3  2  0  0  0  0
  2 30  1  0  0  0  0
  3  4  1  0  0  0  0
  3 19  1  0  0  0  0
  4  5  2  0  0  0  0
  4 31  1  0  0  0  0
  5  6  1  0  0  0  0
  5 17  1  0  0  0  0
  6  7  1  0  0  0  0
  6 32  1  0  0  0  0
  6 33  1  0  0  0  0
  7  8  1  0  0  0  0
  7 34  1  0  0  0  0
  7 35  1  0  0  0  0
  8  9  2  0  0  0  0
  8 16  1  0  0  0  0
  9 10  1  0  0  0  0
  9 17  1  0  0  0  0
 10 11  1  0  0  0  0
 10 36  1  0  0  0  0
 11 12  1  0  0  0  0
 11 16  2  0  0  0  0
 12 13  2  0  0  0  0
 12 37  1  0  0  0  0
 13 14  1  0  0  0  0
 13 38  1  0  0  0  0
 14 15  2  0  0  0  0
 14 39  1  0  0  0  0
 15 16  1  0  0  0  0
 15 40  1  0  0  0  0
 17 18  1  0  0  0  0
 17 41  1  6  0  0  0
 18 19  1  0  0  0  0
 18 42  1  0  0  0  0
 18 43  1  0  0  0  0
 19 20  1  0  0  0  0
 19 44  1  6  0  0  0
 20 21  2  0  0  0  0
 20 23  1  0  0  0  0
 21 22  1  0  0  0  0
 21 45  1  0  0  0  0
 22 46  1  0  0  0  0
 23 24  2  0  0  0  0
 23 25  1  0  0  0  0
 25 26  1  0  0  0  0
 26 47  1  0  0  0  0
 26 48  1  0  0  0  0
 26 49  1  0  0  0  0
M  CHG  1   5   1
M  END
$$$$
