CHEBI:16573
 OpenBabel04242414473D

  3  2  0  0  0  0  0  0  0  0999 V2000
    1.0306    0.0892   -0.0151 O   0  0  0  0  0  0  0  0  0  0  0  0
    2.2066    0.0892   -0.0151 C   0  0  0  0  0  0  0  0  0  0  0  0
    3.7970    0.0892   -0.0151 S   0  0  0  0  0  0  0  0  0  0  0  0
  1  2  2  0  0  0  0
  2  3  2  0  0  0  0
M  END
$$$$
