CHEBI:5885
 OpenBabel04242411063D

 34 36  0  0  0  0  0  0  0  0999 V2000
    5.4139    6.6519   -2.4129 C   0  0  0  0  0  0  0  0  0  0  0  0
    6.8956    6.6665   -2.1378 C   0  0  0  0  0  0  0  0  0  0  0  0
    7.6119    7.8733   -2.6764 C   0  0  0  0  0  0  0  0  0  0  0  0
    7.4744    5.6491   -1.4691 C   0  0  0  0  0  0  0  0  0  0  0  0
    8.9228    5.4515   -1.1221 C   0  0  0  0  0  0  0  0  0  0  0  0
    9.2990    4.1777   -1.6442 O   0  0  0  0  0  0  0  0  0  0  0  0
   10.6212    3.8046   -1.4892 C   0  0  0  0  0  0  0  0  0  0  0  0
   11.6167    4.4403   -0.7337 C   0  0  0  0  0  0  0  0  0  0  0  0
   11.4867    5.5829    0.0058 O   0  0  0  0  0  0  0  0  0  0  0  0
   12.6893    5.8441    0.5752 C   0  0  0  0  0  0  0  0  0  0  0  0
   13.6084    4.8870    0.2203 C   0  0  0  0  0  0  0  0  0  0  0  0
   12.9272    3.9712   -0.6265 C   0  0  0  0  0  0  0  0  0  0  0  0
   13.2935    2.7937   -1.3073 C   0  0  0  0  0  0  0  0  0  0  0  0
   12.3293    2.1242   -2.0717 C   0  0  0  0  0  0  0  0  0  0  0  0
   12.6606    0.9039   -2.7926 C   0  0  0  0  0  0  0  0  0  0  0  0
   11.7236    0.2845   -3.5161 C   0  0  0  0  0  0  0  0  0  0  0  0
   10.3440    0.7873   -3.6190 C   0  0  0  0  0  0  0  0  0  0  0  0
    9.5117    0.1910   -4.2930 O   0  0  0  0  0  0  0  0  0  0  0  0
   10.0537    1.9483   -2.9218 O   0  0  0  0  0  0  0  0  0  0  0  0
   11.0291    2.6302   -2.1469 C   0  0  0  0  0  0  0  0  0  0  0  0
    5.2313    6.5828   -3.4902 H   0  0  0  0  0  0  0  0  0  0  0  0
    4.9470    7.5688   -2.0383 H   0  0  0  0  0  0  0  0  0  0  0  0
    4.9096    5.8069   -1.9323 H   0  0  0  0  0  0  0  0  0  0  0  0
    7.5865    7.8675   -3.7709 H   0  0  0  0  0  0  0  0  0  0  0  0
    8.6567    7.9350   -2.3657 H   0  0  0  0  0  0  0  0  0  0  0  0
    7.1224    8.7886   -2.3261 H   0  0  0  0  0  0  0  0  0  0  0  0
    6.8417    4.8281   -1.1320 H   0  0  0  0  0  0  0  0  0  0  0  0
    9.0080    5.4489   -0.0298 H   0  0  0  0  0  0  0  0  0  0  0  0
    9.5566    6.2313   -1.5510 H   0  0  0  0  0  0  0  0  0  0  0  0
   12.7306    6.7294    1.1948 H   0  0  0  0  0  0  0  0  0  0  0  0
   14.6420    4.8505    0.5338 H   0  0  0  0  0  0  0  0  0  0  0  0
   14.3102    2.4187   -1.2316 H   0  0  0  0  0  0  0  0  0  0  0  0
   13.6698    0.5106   -2.7343 H   0  0  0  0  0  0  0  0  0  0  0  0
   11.9338   -0.6246   -4.0663 H   0  0  0  0  0  0  0  0  0  0  0  0
  1  2  1  0  0  0  0
  1 21  1  0  0  0  0
  1 22  1  0  0  0  0
  1 23  1  0  0  0  0
  2  3  1  0  0  0  0
  2  4  2  0  0  0  0
  3 24  1  0  0  0  0
  3 25  1  0  0  0  0
  3 26  1  0  0  0  0
  4  5  1  0  0  0  0
  4 27  1  0  0  0  0
  5  6  1  0  0  0  0
  5 28  1  0  0  0  0
  5 29  1  0  0  0  0
  6  7  1  0  0  0  0
  7  8  1  0  0  0  0
  7 20  2  0  0  0  0
  8  9  1  0  0  0  0
  8 12  2  0  0  0  0
  9 10  1  0  0  0  0
 10 11  2  0  0  0  0
 10 30  1  0  0  0  0
 11 12  1  0  0  0  0
 11 31  1  0  0  0  0
 12 13  1  0  0  0  0
 13 14  2  0  0  0  0
 13 32  1  0  0  0  0
 14 15  1  0  0  0  0
 14 20  1  0  0  0  0
 15 16  2  0  0  0  0
 15 33  1  0  0  0  0
 16 17  1  0  0  0  0
 16 34  1  0  0  0  0
 17 18  2  0  0  0  0
 17 19  1  0  0  0  0
 19 20  1  0  0  0  0
M  END
$$$$
