CHEBI:16160
 OpenBabel04242413553D

 28 27  0  0  1  0  0  0  0  0999 V2000
    2.0732    2.6451   -0.0114 N   0  0  0  0  0  0  0  0  0  0  0  0
    2.0587    1.8297   -1.2682 C   0  0  1  0  0  0  0  0  0  0  0  0
    2.5730    0.4149   -0.9859 C   0  0  0  0  0  0  0  0  0  0  0  0
    2.8896   -0.3838   -2.2516 C   0  0  0  0  0  0  0  0  0  0  0  0
    3.8912    0.3275   -2.9946 O   0  0  0  0  0  0  0  0  0  0  0  0
    4.6646   -0.4351   -3.8071 C   0  0  0  0  0  0  0  0  0  0  0  0
    4.5400   -1.6397   -3.9984 O   0  0  0  0  0  0  0  0  0  0  0  0
    5.7665    0.3961   -4.4117 C   0  0  0  0  0  0  0  0  0  0  0  0
    6.8807   -0.4979   -4.9384 C   0  0  0  0  0  0  0  0  0  0  0  0
    7.6087   -1.1800   -3.8069 C   0  0  0  0  0  0  0  0  0  0  0  0
    8.6402   -0.7491   -3.3140 O   0  0  0  0  0  0  0  0  0  0  0  0
    6.9969   -2.2931   -3.3492 O   0  0  0  0  0  0  0  0  0  0  0  0
    0.6132    1.8322   -1.8038 C   0  0  0  0  0  0  0  0  0  0  0  0
    0.1436    1.0400   -2.6040 O   0  0  0  0  0  0  0  0  0  0  0  0
   -0.0933    2.8700   -1.2816 O   0  0  0  0  0  0  0  0  0  0  0  0
    3.0529    2.7946    0.2506 H   0  0  0  0  0  0  0  0  0  0  0  0
    1.6995    2.0680    0.7510 H   0  0  0  0  0  0  0  0  0  0  0  0
    2.6782    2.3521   -2.0046 H   0  0  0  0  0  0  0  0  0  0  0  0
    1.8496   -0.1445   -0.3806 H   0  0  0  0  0  0  0  0  0  0  0  0
    3.5012    0.4898   -0.4032 H   0  0  0  0  0  0  0  0  0  0  0  0
    2.0103   -0.5220   -2.8856 H   0  0  0  0  0  0  0  0  0  0  0  0
    3.2595   -1.3715   -1.9508 H   0  0  0  0  0  0  0  0  0  0  0  0
    6.1612    1.0725   -3.6452 H   0  0  0  0  0  0  0  0  0  0  0  0
    5.3401    0.9874   -5.2283 H   0  0  0  0  0  0  0  0  0  0  0  0
    7.6146    0.1074   -5.4835 H   0  0  0  0  0  0  0  0  0  0  0  0
    6.5190   -1.2528   -5.6454 H   0  0  0  0  0  0  0  0  0  0  0  0
    6.1202   -2.4773   -3.7644 H   0  0  0  0  0  0  0  0  0  0  0  0
    0.5225    3.3246   -0.6523 H   0  0  0  0  0  0  0  0  0  0  0  0
  1  2  1  0  0  0  0
  1 16  1  0  0  0  0
  1 17  1  0  0  0  0
  2  3  1  0  0  0  0
  2 13  1  0  0  0  0
  2 18  1  6  0  0  0
  3  4  1  0  0  0  0
  3 19  1  0  0  0  0
  3 20  1  0  0  0  0
  4  5  1  0  0  0  0
  4 21  1  0  0  0  0
  4 22  1  0  0  0  0
  5  6  1  0  0  0  0
  6  7  2  0  0  0  0
  6  8  1  0  0  0  0
  8  9  1  0  0  0  0
  8 23  1  0  0  0  0
  8 24  1  0  0  0  0
  9 10  1  0  0  0  0
  9 25  1  0  0  0  0
  9 26  1  0  0  0  0
 10 11  2  0  0  0  0
 10 12  1  0  0  0  0
 12 27  1  0  0  0  0
 13 14  2  0  0  0  0
 13 15  1  0  0  0  0
 15 28  1  0  0  0  0
M  END
$$$$
