CHEBI:17890
 OpenBabel04242423143D

 23 24  0  0  0  0  0  0  0  0999 V2000
    0.9648    2.2118   -1.6859 O   0  0  0  0  0  0  0  0  0  0  0  0
    2.3874    2.2761   -1.7257 C   0  0  0  0  0  0  0  0  0  0  0  0
    2.9767    1.0565   -1.0239 C   0  0  0  0  0  0  0  0  0  0  0  0
    4.4710    1.0610   -1.0336 C   0  0  0  0  0  0  0  0  0  0  0  0
    5.2946    1.5767   -0.0516 C   0  0  0  0  0  0  0  0  0  0  0  0
    6.5943    1.3886   -0.4369 N   0  0  0  0  0  0  0  0  0  0  0  0
    6.6426    0.7597   -1.6587 C   0  0  0  0  0  0  0  0  0  0  0  0
    7.7446    0.3723   -2.4306 C   0  0  0  0  0  0  0  0  0  0  0  0
    7.4907   -0.2633   -3.6494 C   0  0  0  0  0  0  0  0  0  0  0  0
    6.1865   -0.5004   -4.0764 C   0  0  0  0  0  0  0  0  0  0  0  0
    5.0963   -0.1053   -3.2923 C   0  0  0  0  0  0  0  0  0  0  0  0
    5.3244    0.5378   -2.0581 C   0  0  0  0  0  0  0  0  0  0  0  0
    0.6354    3.0077   -2.1377 H   0  0  0  0  0  0  0  0  0  0  0  0
    2.7050    3.2015   -1.2330 H   0  0  0  0  0  0  0  0  0  0  0  0
    2.7018    2.3166   -2.7742 H   0  0  0  0  0  0  0  0  0  0  0  0
    2.5979    0.1421   -1.4975 H   0  0  0  0  0  0  0  0  0  0  0  0
    2.6081    1.0179    0.0092 H   0  0  0  0  0  0  0  0  0  0  0  0
    5.0639    2.0586    0.8893 H   0  0  0  0  0  0  0  0  0  0  0  0
    7.4065    1.6673    0.0954 H   0  0  0  0  0  0  0  0  0  0  0  0
    8.7619    0.5537   -2.0999 H   0  0  0  0  0  0  0  0  0  0  0  0
    8.3249   -0.5788   -4.2718 H   0  0  0  0  0  0  0  0  0  0  0  0
    6.0108   -0.9988   -5.0264 H   0  0  0  0  0  0  0  0  0  0  0  0
    4.0837   -0.2982   -3.6339 H   0  0  0  0  0  0  0  0  0  0  0  0
  1  2  1  0  0  0  0
  1 13  1  0  0  0  0
  2  3  1  0  0  0  0
  2 14  1  0  0  0  0
  2 15  1  0  0  0  0
  3  4  1  0  0  0  0
  3 16  1  0  0  0  0
  3 17  1  0  0  0  0
  4  5  2  0  0  0  0
  4 12  1  0  0  0  0
  5  6  1  0  0  0  0
  5 18  1  0  0  0  0
  6  7  1  0  0  0  0
  6 19  1  0  0  0  0
  7  8  1  0  0  0  0
  7 12  2  0  0  0  0
  8  9  2  0  0  0  0
  8 20  1  0  0  0  0
  9 10  1  0  0  0  0
  9 21  1  0  0  0  0
 10 11  2  0  0  0  0
 10 22  1  0  0  0  0
 11 12  1  0  0  0  0
 11 23  1  0  0  0  0
M  END
$$$$
