CHEBI:16853
 OpenBabel04242415253D

 12 11  0  0  0  0  0  0  0  0999 V2000
   -3.1132    0.1918   -0.2154 O   0  0  0  0  0  0  0  0  0  0  0  0
   -1.9650    0.9503   -0.6606 S   0  0  0  0  0  0  0  0  0  0  0  0
   -1.0897    0.4470   -1.6971 O   0  0  0  0  0  0  0  0  0  0  0  0
   -2.5011    2.3860   -1.1644 O   0  0  0  0  0  0  0  0  0  0  0  0
   -0.8059    1.3674    1.0496 S   0  0  0  0  0  0  0  0  0  0  0  0
    1.1008    1.4383    0.2593 S   0  0  0  0  0  0  0  0  0  0  0  0
    1.0216    3.2564   -0.7680 S   0  0  0  0  0  0  0  0  0  0  0  0
    2.3271    3.5222   -1.3270 O   0  0  0  0  0  0  0  0  0  0  0  0
   -0.1754    3.2837   -1.5853 O   0  0  0  0  0  0  0  0  0  0  0  0
    0.8240    4.3748    0.3746 O   0  0  0  0  0  0  0  0  0  0  0  0
   -1.7643    2.8328   -1.6545 H   0  0  0  0  0  0  0  0  0  0  0  0
    1.6058    4.9679    0.3490 H   0  0  0  0  0  0  0  0  0  0  0  0
  1  2  2  0  0  0  0
  2  3  2  0  0  0  0
  2  4  1  0  0  0  0
  2  5  1  0  0  0  0
  4 11  1  0  0  0  0
  5  6  1  0  0  0  0
  6  7  1  0  0  0  0
  7  8  2  0  0  0  0
  7  9  2  0  0  0  0
  7 10  1  0  0  0  0
 10 12  1  0  0  0  0
M  END
$$$$
