CHEBI:18206
 OpenBabel04252409103D

101104  0  0  1  0  0  0  0  0999 V2000
    6.9058  -16.7253   -2.5912 C   0  0  0  0  0  0  0  0  0  0  0  0
    6.3991  -15.2767   -2.4432 C   0  0  0  0  0  0  0  0  0  0  0  0
    6.6297  -14.8563   -0.9720 C   0  0  0  0  0  0  0  0  0  0  0  0
    7.2376  -14.3642   -3.3729 C   0  0  0  0  0  0  0  0  0  0  0  0
    6.9127  -12.9958   -3.1584 O   0  0  0  0  0  0  0  0  0  0  0  0
    7.6486  -11.9082   -4.0932 P   0  0  0  0  0  0  0  0  0  0  0  0
    7.3569  -12.0855   -5.5436 O   0  0  0  0  0  0  0  0  0  0  0  0
    7.0219  -10.5411   -3.5428 O   0  0  0  0  0  0  0  0  0  0  0  0
    9.1728  -11.8570   -3.6492 O   0  0  0  0  0  0  0  0  0  0  0  0
   10.2001  -10.7982   -4.2383 P   0  0  0  0  0  0  0  0  0  0  0  0
   10.0575  -10.4561   -5.6824 O   0  0  0  0  0  0  0  0  0  0  0  0
   10.0033   -9.4921   -3.3293 O   0  0  0  0  0  0  0  0  0  0  0  0
   11.6730  -11.2951   -3.8330 O   0  0  0  0  0  0  0  0  0  0  0  0
   12.1017  -11.1750   -2.4837 C   0  0  0  0  0  0  0  0  0  0  0  0
   13.3759  -11.9849   -2.2462 C   0  0  1  0  0  0  0  0  0  0  0  0
   13.0749  -13.3924   -2.3141 O   0  0  0  0  0  0  0  0  0  0  0  0
   14.2721  -14.0699   -2.7542 C   0  0  1  0  0  0  0  0  0  0  0  0
   13.8960  -14.9843   -3.8102 N   0  0  0  0  0  0  0  0  0  0  0  0
   13.4915  -16.2789   -3.5926 C   0  0  0  0  0  0  0  0  0  0  0  0
   13.2237  -16.9103   -4.7146 N   0  0  0  0  0  0  0  0  0  0  0  0
   13.4365  -15.9719   -5.7021 C   0  0  0  0  0  0  0  0  0  0  0  0
   13.3193  -16.0334   -7.1007 C   0  0  0  0  0  0  0  0  0  0  0  0
   12.9112  -17.1731   -7.7793 N   0  0  0  0  0  0  0  0  0  0  0  0
   13.6410  -14.9392   -7.8249 N   0  0  0  0  0  0  0  0  0  0  0  0
   14.0303  -13.8292   -7.1660 C   0  0  0  0  0  0  0  0  0  0  0  0
   14.1797  -13.6479   -5.8362 N   0  0  0  0  0  0  0  0  0  0  0  0
   13.8619  -14.7671   -5.1610 C   0  0  0  0  0  0  0  0  0  0  0  0
   15.3283  -13.0069   -3.0923 C   0  0  2  0  0  0  0  0  0  0  0  0
   16.2342  -12.8591   -1.9836 O   0  0  0  0  0  0  0  0  0  0  0  0
   14.4887  -11.7437   -3.2632 C   0  0  2  0  0  0  0  0  0  0  0  0
   15.1953  -10.5452   -2.9928 O   0  0  0  0  0  0  0  0  0  0  0  0
   16.3049  -10.0747   -4.0418 P   0  0  0  0  0  0  0  0  0  0  0  0
   17.2720  -11.1214   -4.4724 O   0  0  0  0  0  0  0  0  0  0  0  0
   15.4994   -9.4027   -5.2388 O   0  0  0  0  0  0  0  0  0  0  0  0
   17.0152   -8.8282   -3.3513 O   0  0  0  0  0  0  0  0  0  0  0  0
    4.8726  -15.1716   -2.7565 C   0  0  1  0  0  0  0  0  0  0  0  0
    4.3706  -13.8493   -2.5005 O   0  0  0  0  0  0  0  0  0  0  0  0
    4.4857  -15.6271   -4.1868 C   0  0  0  0  0  0  0  0  0  0  0  0
    4.7623  -16.7322   -4.6416 O   0  0  0  0  0  0  0  0  0  0  0  0
    3.7602  -14.6870   -4.8923 N   0  0  0  0  0  0  0  0  0  0  0  0
    3.1873  -15.0119   -6.1857 C   0  0  0  0  0  0  0  0  0  0  0  0
    2.6014  -13.7938   -6.8761 C   0  0  0  0  0  0  0  0  0  0  0  0
    2.0605  -14.1672   -8.2368 C   0  0  0  0  0  0  0  0  0  0  0  0
    2.7041  -13.9999   -9.2675 O   0  0  0  0  0  0  0  0  0  0  0  0
    0.7993  -14.7201   -8.2213 N   0  0  0  0  0  0  0  0  0  0  0  0
    0.1182  -15.0881   -9.4534 C   0  0  0  0  0  0  0  0  0  0  0  0
   -0.4836  -13.8958  -10.2004 C   0  0  0  0  0  0  0  0  0  0  0  0
   -1.7873  -13.0757   -9.2148 S   0  0  0  0  0  0  0  0  0  0  0  0
   -2.0578  -11.7060  -10.2887 C   0  0  0  0  0  0  0  0  0  0  0  0
   -2.1474  -11.8941  -11.4972 O   0  0  0  0  0  0  0  0  0  0  0  0
   -2.1114  -10.3347   -9.6592 C   0  0  0  0  0  0  0  0  0  0  0  0
   -2.2016   -9.2437  -10.4607 C   0  0  0  0  0  0  0  0  0  0  0  0
   -2.3262   -9.2681  -11.8363 N   0  0  0  0  0  0  0  0  0  0  0  0
   -2.1890   -7.8409   -9.8759 C   0  0  0  0  0  0  0  0  0  0  0  0
   -2.6707   -7.7696   -8.4400 C   0  0  0  0  0  0  0  0  0  0  0  0
   -1.9479   -8.8149   -7.6436 C   0  0  0  0  0  0  0  0  0  0  0  0
   -1.4226   -8.5503   -6.5618 O   0  0  0  0  0  0  0  0  0  0  0  0
   -2.0172  -10.2372   -8.1572 C   0  0  0  0  0  0  0  0  0  0  0  0
    7.9210  -16.8294   -2.1908 H   0  0  0  0  0  0  0  0  0  0  0  0
    6.9514  -17.0407   -3.6377 H   0  0  0  0  0  0  0  0  0  0  0  0
    6.2631  -17.4275   -2.0487 H   0  0  0  0  0  0  0  0  0  0  0  0
    7.6931  -14.9072   -0.7111 H   0  0  0  0  0  0  0  0  0  0  0  0
    6.0887  -15.5201   -0.2876 H   0  0  0  0  0  0  0  0  0  0  0  0
    6.2937  -13.8335   -0.7730 H   0  0  0  0  0  0  0  0  0  0  0  0
    7.0585  -14.6128   -4.4247 H   0  0  0  0  0  0  0  0  0  0  0  0
    8.3071  -14.4979   -3.1740 H   0  0  0  0  0  0  0  0  0  0  0  0
    6.6030  -10.0439   -4.2709 H   0  0  0  0  0  0  0  0  0  0  0  0
   10.1942   -8.6886   -3.8496 H   0  0  0  0  0  0  0  0  0  0  0  0
   11.3039  -11.5310   -1.8234 H   0  0  0  0  0  0  0  0  0  0  0  0
   12.2966  -10.1176   -2.2778 H   0  0  0  0  0  0  0  0  0  0  0  0
   13.7293  -11.7724   -1.2287 H   0  0  0  0  0  0  0  0  0  0  0  0
   14.6204  -14.6842   -1.9142 H   0  0  0  0  0  0  0  0  0  0  0  0
   13.4119  -16.7034   -2.5990 H   0  0  0  0  0  0  0  0  0  0  0  0
   13.0109  -18.0254   -7.2397 H   0  0  0  0  0  0  0  0  0  0  0  0
   13.2184  -17.1806   -8.7423 H   0  0  0  0  0  0  0  0  0  0  0  0
   14.2578  -12.9711   -7.7922 H   0  0  0  0  0  0  0  0  0  0  0  0
   15.9420  -13.2618   -3.9594 H   0  0  0  0  0  0  0  0  0  0  0  0
   16.9521  -12.2708   -2.2882 H   0  0  0  0  0  0  0  0  0  0  0  0
   14.0784  -11.6956   -4.2753 H   0  0  0  0  0  0  0  0  0  0  0  0
   15.2955  -10.0307   -5.9552 H   0  0  0  0  0  0  0  0  0  0  0  0
   17.8642   -8.6203   -3.7807 H   0  0  0  0  0  0  0  0  0  0  0  0
    4.3155  -15.8328   -2.0803 H   0  0  0  0  0  0  0  0  0  0  0  0
    5.0767  -13.2256   -2.7647 H   0  0  0  0  0  0  0  0  0  0  0  0
    3.3603  -13.9467   -4.3200 H   0  0  0  0  0  0  0  0  0  0  0  0
    2.4188  -15.7769   -6.0223 H   0  0  0  0  0  0  0  0  0  0  0  0
    3.9678  -15.4716   -6.8041 H   0  0  0  0  0  0  0  0  0  0  0  0
    3.3615  -13.0148   -7.0063 H   0  0  0  0  0  0  0  0  0  0  0  0
    1.8000  -13.3513   -6.2728 H   0  0  0  0  0  0  0  0  0  0  0  0
    0.2482  -14.6808   -7.3730 H   0  0  0  0  0  0  0  0  0  0  0  0
   -0.6535  -15.8218   -9.1962 H   0  0  0  0  0  0  0  0  0  0  0  0
    0.8431  -15.5869  -10.1073 H   0  0  0  0  0  0  0  0  0  0  0  0
   -0.9197  -14.2418  -11.1432 H   0  0  0  0  0  0  0  0  0  0  0  0
    0.2938  -13.1599  -10.4323 H   0  0  0  0  0  0  0  0  0  0  0  0
   -2.1812  -10.1974  -12.2517 H   0  0  0  0  0  0  0  0  0  0  0  0
   -1.8057   -8.5456  -12.3285 H   0  0  0  0  0  0  0  0  0  0  0  0
   -2.8209   -7.1771  -10.4796 H   0  0  0  0  0  0  0  0  0  0  0  0
   -1.1638   -7.4540   -9.9463 H   0  0  0  0  0  0  0  0  0  0  0  0
   -3.7475   -7.9550   -8.3645 H   0  0  0  0  0  0  0  0  0  0  0  0
   -2.4624   -6.7797   -8.0207 H   0  0  0  0  0  0  0  0  0  0  0  0
   -2.8981  -10.6990   -7.6966 H   0  0  0  0  0  0  0  0  0  0  0  0
   -1.1098  -10.7358   -7.7993 H   0  0  0  0  0  0  0  0  0  0  0  0
  1  2  1  0  0  0  0
  1 59  1  0  0  0  0
  1 60  1  0  0  0  0
  1 61  1  0  0  0  0
  2  3  1  0  0  0  0
  2  4  1  0  0  0  0
  2 36  1  0  0  0  0
  3 62  1  0  0  0  0
  3 63  1  0  0  0  0
  3 64  1  0  0  0  0
  4  5  1  0  0  0  0
  4 65  1  0  0  0  0
  4 66  1  0  0  0  0
  5  6  1  0  0  0  0
  6  7  2  0  0  0  0
  6  8  1  0  0  0  0
  6  9  1  0  0  0  0
  8 67  1  0  0  0  0
  9 10  1  0  0  0  0
 10 11  2  0  0  0  0
 10 12  1  0  0  0  0
 10 13  1  0  0  0  0
 12 68  1  0  0  0  0
 13 14  1  0  0  0  0
 14 69  1  0  0  0  0
 14 70  1  0  0  0  0
 15 16  1  0  0  0  0
 15 30  1  0  0  0  0
 15 14  1  0  0  0  0
 15 71  1  1  0  0  0
 16 17  1  0  0  0  0
 17 28  1  0  0  0  0
 17 18  1  0  0  0  0
 17 72  1  1  0  0  0
 18 19  1  0  0  0  0
 18 27  1  0  0  0  0
 19 20  2  0  0  0  0
 19 73  1  0  0  0  0
 20 21  1  0  0  0  0
 21 22  1  0  0  0  0
 21 27  2  0  0  0  0
 22 23  1  0  0  0  0
 22 24  2  0  0  0  0
 23 74  1  0  0  0  0
 23 75  1  0  0  0  0
 24 25  1  0  0  0  0
 25 26  2  0  0  0  0
 25 76  1  0  0  0  0
 26 27  1  0  0  0  0
 28 29  1  0  0  0  0
 28 30  1  0  0  0  0
 28 77  1  6  0  0  0
 29 78  1  0  0  0  0
 30 31  1  0  0  0  0
 30 79  1  6  0  0  0
 31 32  1  0  0  0  0
 32 33  2  0  0  0  0
 32 34  1  0  0  0  0
 32 35  1  0  0  0  0
 34 80  1  0  0  0  0
 35 81  1  0  0  0  0
 36 37  1  0  0  0  0
 36 38  1  0  0  0  0
 36 82  1  1  0  0  0
 37 83  1  0  0  0  0
 38 39  2  0  0  0  0
 38 40  1  0  0  0  0
 40 41  1  0  0  0  0
 40 84  1  0  0  0  0
 41 42  1  0  0  0  0
 41 85  1  0  0  0  0
 41 86  1  0  0  0  0
 42 43  1  0  0  0  0
 42 87  1  0  0  0  0
 42 88  1  0  0  0  0
 43 44  2  0  0  0  0
 43 45  1  0  0  0  0
 45 46  1  0  0  0  0
 45 89  1  0  0  0  0
 46 47  1  0  0  0  0
 46 90  1  0  0  0  0
 46 91  1  0  0  0  0
 47 48  1  0  0  0  0
 47 92  1  0  0  0  0
 47 93  1  0  0  0  0
 48 49  1  0  0  0  0
 49 50  2  0  0  0  0
 49 51  1  0  0  0  0
 51 52  2  0  0  0  0
 51 58  1  0  0  0  0
 52 53  1  0  0  0  0
 52 54  1  0  0  0  0
 53 94  1  0  0  0  0
 53 95  1  0  0  0  0
 54 55  1  0  0  0  0
 54 96  1  0  0  0  0
 54 97  1  0  0  0  0
 55 56  1  0  0  0  0
 55 98  1  0  0  0  0
 55 99  1  0  0  0  0
 56 57  2  0  0  0  0
 56 58  1  0  0  0  0
 58100  1  0  0  0  0
 58101  1  0  0  0  0
M  END
$$$$
