CHEBI:15895
 OpenBabel04242413263D

 22 22  0  0  1  0  0  0  0  0999 V2000
    1.1718    1.2090   -0.5468 O   0  0  0  0  0  0  0  0  0  0  0  0
    2.2085    0.5684   -0.6234 C   0  0  0  0  0  0  0  0  0  0  0  0
    3.4410    1.0228   -0.2511 O   0  0  0  0  0  0  0  0  0  0  0  0
    4.4026   -0.0349   -0.4310 C   0  0  1  0  0  0  0  0  0  0  0  0
    5.4519    0.0100    0.6920 C   0  0  2  0  0  0  0  0  0  0  0  0
    4.8467   -0.3092    1.9539 O   0  0  0  0  0  0  0  0  0  0  0  0
    6.6374   -0.9350    0.4525 C   0  0  0  0  0  0  0  0  0  0  0  0
    6.2434   -2.2916    0.6532 O   0  0  0  0  0  0  0  0  0  0  0  0
    3.5722   -1.3082   -0.4812 C   0  0  2  0  0  0  0  0  0  0  0  0
    4.2392   -2.3484   -1.1994 O   0  0  0  0  0  0  0  0  0  0  0  0
    2.3233   -0.8314   -1.1927 C   0  0  1  0  0  0  0  0  0  0  0  0
    1.2488   -1.7216   -0.9652 O   0  0  0  0  0  0  0  0  0  0  0  0
    4.9090    0.1457   -1.3885 H   0  0  0  0  0  0  0  0  0  0  0  0
    5.8246    1.0374    0.7747 H   0  0  0  0  0  0  0  0  0  0  0  0
    5.1224   -1.2242    2.1695 H   0  0  0  0  0  0  0  0  0  0  0  0
    7.0676   -0.8197   -0.5471 H   0  0  0  0  0  0  0  0  0  0  0  0
    7.4199   -0.7304    1.1903 H   0  0  0  0  0  0  0  0  0  0  0  0
    5.7382   -2.5685   -0.1417 H   0  0  0  0  0  0  0  0  0  0  0  0
    3.3204   -1.6935    0.5136 H   0  0  0  0  0  0  0  0  0  0  0  0
    3.5590   -3.0375   -1.3527 H   0  0  0  0  0  0  0  0  0  0  0  0
    2.4792   -0.7587   -2.2750 H   0  0  0  0  0  0  0  0  0  0  0  0
    0.4306   -1.2030   -1.0988 H   0  0  0  0  0  0  0  0  0  0  0  0
  1  2  2  0  0  0  0
  2  3  1  0  0  0  0
  2 11  1  0  0  0  0
  3  4  1  0  0  0  0
  4  9  1  0  0  0  0
  4  5  1  0  0  0  0
  4 13  1  6  0  0  0
  5  7  1  0  0  0  0
  5  6  1  0  0  0  0
  5 14  1  6  0  0  0
  6 15  1  0  0  0  0
  7  8  1  0  0  0  0
  7 16  1  0  0  0  0
  7 17  1  0  0  0  0
  8 18  1  0  0  0  0
  9 10  1  0  0  0  0
  9 11  1  0  0  0  0
  9 19  1  1  0  0  0
 10 20  1  0  0  0  0
 11 12  1  0  0  0  0
 11 21  1  6  0  0  0
 12 22  1  0  0  0  0
M  END
$$$$
