CHEBI:1296
 OpenBabel04242410363D

 75 78  0  0  1  0  0  0  0  0999 V2000
   11.3272    0.1801   -0.1098 C   0  0  0  0  0  0  0  0  0  0  0  0
   11.1187    1.5637   -0.7274 C   0  0  0  0  0  0  0  0  0  0  0  0
   11.8626    1.6473   -2.0633 C   0  0  0  0  0  0  0  0  0  0  0  0
    9.6297    1.8880   -0.9424 C   0  0  0  0  0  0  0  0  0  0  0  0
    8.8324    2.0341    0.3611 C   0  0  0  0  0  0  0  0  0  0  0  0
    7.3725    2.3815    0.0529 C   0  0  0  0  0  0  0  0  0  0  0  0
    6.4323    2.5872    1.2729 C   0  0  2  0  0  0  0  0  0  0  0  0
    6.3685    1.2974    2.1016 C   0  0  0  0  0  0  0  0  0  0  0  0
    5.1454    2.8131    0.6754 O   0  0  0  0  0  0  0  0  0  0  0  0
    6.8340    3.8308    2.1316 C   0  0  1  0  0  0  0  0  0  0  0  0
    6.8719    5.1419    1.2884 C   0  0  0  0  0  0  0  0  0  0  0  0
    6.4487    6.2943    2.2038 C   0  0  0  0  0  0  0  0  0  0  0  0
    6.5012    5.6926    3.5973 C   0  0  1  0  0  0  0  0  0  0  0  0
    5.7628    6.4363    4.7140 C   0  0  2  0  0  0  0  0  0  0  0  0
    6.2828    7.8726    4.8769 C   0  0  0  0  0  0  0  0  0  0  0  0
    5.7681    8.5352    6.1182 C   0  0  0  0  0  0  0  0  0  0  0  0
    5.1888    7.8876    7.1445 C   0  0  0  0  0  0  0  0  0  0  0  0
    4.6590    8.6629    8.3322 C   0  0  0  0  0  0  0  0  0  0  0  0
    5.1535    8.0978    9.6653 C   0  0  1  0  0  0  0  0  0  0  0  0
    4.4882    8.7493   10.7468 O   0  0  0  0  0  0  0  0  0  0  0  0
    4.9173    6.5927    9.7646 C   0  0  0  0  0  0  0  0  0  0  0  0
    5.5277    5.8491    8.5758 C   0  0  0  0  0  0  0  0  0  0  0  0
    5.0359    6.3574    7.1895 C   0  0  1  0  0  0  0  0  0  0  0  0
    3.5340    6.0166    7.0217 C   0  0  0  0  0  0  0  0  0  0  0  0
    5.9091    5.6719    6.0596 C   0  0  1  0  0  0  0  0  0  0  0  0
    5.6906    4.1398    5.9276 C   0  0  0  0  0  0  0  0  0  0  0  0
    6.3558    3.4976    4.6953 C   0  0  0  0  0  0  0  0  0  0  0  0
    5.9967    4.2412    3.3937 C   0  0  2  0  0  0  0  0  0  0  0  0
    4.4738    4.1572    3.1389 C   0  0  0  0  0  0  0  0  0  0  0  0
   12.3946   -0.0552   -0.0360 H   0  0  0  0  0  0  0  0  0  0  0  0
   10.8518   -0.6001   -0.7141 H   0  0  0  0  0  0  0  0  0  0  0  0
   10.9136    0.1277    0.9015 H   0  0  0  0  0  0  0  0  0  0  0  0
   11.5517    2.3130   -0.0532 H   0  0  0  0  0  0  0  0  0  0  0  0
   11.4709    0.9201   -2.7830 H   0  0  0  0  0  0  0  0  0  0  0  0
   12.9311    1.4490   -1.9280 H   0  0  0  0  0  0  0  0  0  0  0  0
   11.7632    2.6457   -2.5024 H   0  0  0  0  0  0  0  0  0  0  0  0
    9.1705    1.1108   -1.5671 H   0  0  0  0  0  0  0  0  0  0  0  0
    9.5495    2.8280   -1.5039 H   0  0  0  0  0  0  0  0  0  0  0  0
    9.2909    2.8158    0.9750 H   0  0  0  0  0  0  0  0  0  0  0  0
    8.8735    1.0990    0.9270 H   0  0  0  0  0  0  0  0  0  0  0  0
    6.9504    1.5838   -0.5760 H   0  0  0  0  0  0  0  0  0  0  0  0
    7.3391    3.2714   -0.5891 H   0  0  0  0  0  0  0  0  0  0  0  0
    5.5337    1.3090    2.8077 H   0  0  0  0  0  0  0  0  0  0  0  0
    7.2929    1.1221    2.6595 H   0  0  0  0  0  0  0  0  0  0  0  0
    6.1863    0.4318    1.4534 H   0  0  0  0  0  0  0  0  0  0  0  0
    4.4796    2.2717    1.1294 H   0  0  0  0  0  0  0  0  0  0  0  0
    7.8589    3.6540    2.4889 H   0  0  0  0  0  0  0  0  0  0  0  0
    6.2079    5.1103    0.4186 H   0  0  0  0  0  0  0  0  0  0  0  0
    7.8891    5.3070    0.9137 H   0  0  0  0  0  0  0  0  0  0  0  0
    5.4367    6.6298    1.9507 H   0  0  0  0  0  0  0  0  0  0  0  0
    7.1171    7.1546    2.0969 H   0  0  0  0  0  0  0  0  0  0  0  0
    7.5663    5.6567    3.8808 H   0  0  0  0  0  0  0  0  0  0  0  0
    4.7031    6.5123    4.4470 H   0  0  0  0  0  0  0  0  0  0  0  0
    5.9743    8.4687    4.0099 H   0  0  0  0  0  0  0  0  0  0  0  0
    7.3791    7.8900    4.9046 H   0  0  0  0  0  0  0  0  0  0  0  0
    5.8733    9.6186    6.1486 H   0  0  0  0  0  0  0  0  0  0  0  0
    3.5619    8.6595    8.3092 H   0  0  0  0  0  0  0  0  0  0  0  0
    4.9355    9.7239    8.2768 H   0  0  0  0  0  0  0  0  0  0  0  0
    6.2246    8.3055    9.7740 H   0  0  0  0  0  0  0  0  0  0  0  0
    3.5362    8.5671   10.6655 H   0  0  0  0  0  0  0  0  0  0  0  0
    3.8437    6.3807    9.8407 H   0  0  0  0  0  0  0  0  0  0  0  0
    5.3515    6.2173   10.6995 H   0  0  0  0  0  0  0  0  0  0  0  0
    5.3087    4.7808    8.6897 H   0  0  0  0  0  0  0  0  0  0  0  0
    6.6200    5.9494    8.6377 H   0  0  0  0  0  0  0  0  0  0  0  0
    2.8966    6.5780    7.7126 H   0  0  0  0  0  0  0  0  0  0  0  0
    3.3349    4.9589    7.2222 H   0  0  0  0  0  0  0  0  0  0  0  0
    3.1740    6.2412    6.0128 H   0  0  0  0  0  0  0  0  0  0  0  0
    6.9654    5.7848    6.3545 H   0  0  0  0  0  0  0  0  0  0  0  0
    4.6247    3.9002    5.8938 H   0  0  0  0  0  0  0  0  0  0  0  0
    6.0817    3.6408    6.8224 H   0  0  0  0  0  0  0  0  0  0  0  0
    6.0557    2.4466    4.6466 H   0  0  0  0  0  0  0  0  0  0  0  0
    7.4437    3.4988    4.8437 H   0  0  0  0  0  0  0  0  0  0  0  0
    3.8799    4.6264    3.9271 H   0  0  0  0  0  0  0  0  0  0  0  0
    4.1398    3.1163    3.1005 H   0  0  0  0  0  0  0  0  0  0  0  0
    4.1828    4.6431    2.2029 H   0  0  0  0  0  0  0  0  0  0  0  0
  1  2  1  0  0  0  0
  1 30  1  0  0  0  0
  1 31  1  0  0  0  0
  1 32  1  0  0  0  0
  2  3  1  0  0  0  0
  2  4  1  0  0  0  0
  2 33  1  0  0  0  0
  3 34  1  0  0  0  0
  3 35  1  0  0  0  0
  3 36  1  0  0  0  0
  4  5  1  0  0  0  0
  4 37  1  0  0  0  0
  4 38  1  0  0  0  0
  5  6  1  0  0  0  0
  5 39  1  0  0  0  0
  5 40  1  0  0  0  0
  6 41  1  0  0  0  0
  6 42  1  0  0  0  0
  7  9  1  6  0  0  0
  7 10  1  0  0  0  0
  7  8  1  0  0  0  0
  7  6  1  0  0  0  0
  8 43  1  0  0  0  0
  8 44  1  0  0  0  0
  8 45  1  0  0  0  0
  9 46  1  0  0  0  0
 10 11  1  0  0  0  0
 10 28  1  0  0  0  0
 10 47  1  1  0  0  0
 11 12  1  0  0  0  0
 11 48  1  0  0  0  0
 11 49  1  0  0  0  0
 12 13  1  0  0  0  0
 12 50  1  0  0  0  0
 12 51  1  0  0  0  0
 13 14  1  0  0  0  0
 13 28  1  0  0  0  0
 13 52  1  1  0  0  0
 14 15  1  0  0  0  0
 14 25  1  0  0  0  0
 14 53  1  6  0  0  0
 15 16  1  0  0  0  0
 15 54  1  0  0  0  0
 15 55  1  0  0  0  0
 16 17  2  0  0  0  0
 16 56  1  0  0  0  0
 17 18  1  0  0  0  0
 17 23  1  0  0  0  0
 18 19  1  0  0  0  0
 18 57  1  0  0  0  0
 18 58  1  0  0  0  0
 19 20  1  0  0  0  0
 19 21  1  0  0  0  0
 19 59  1  1  0  0  0
 20 60  1  0  0  0  0
 21 22  1  0  0  0  0
 21 61  1  0  0  0  0
 21 62  1  0  0  0  0
 22 23  1  0  0  0  0
 22 63  1  0  0  0  0
 22 64  1  0  0  0  0
 23 24  1  6  0  0  0
 23 25  1  0  0  0  0
 24 65  1  0  0  0  0
 24 66  1  0  0  0  0
 24 67  1  0  0  0  0
 25 26  1  0  0  0  0
 25 68  1  1  0  0  0
 26 27  1  0  0  0  0
 26 69  1  0  0  0  0
 26 70  1  0  0  0  0
 27 28  1  0  0  0  0
 27 71  1  0  0  0  0
 27 72  1  0  0  0  0
 28 29  1  6  0  0  0
 29 73  1  0  0  0  0
 29 74  1  0  0  0  0
 29 75  1  0  0  0  0
M  END
$$$$
