CHEBI:18148
 OpenBabel04242423373D

 34 34  0  0  1  0  0  0  0  0999 V2000
    5.8296   -1.7400    3.6026 O   0  0  0  0  0  0  0  0  0  0  0  0
    6.5175   -2.6489    2.6489 P   0  0  0  0  0  0  0  0  0  0  0  0
    8.1091   -2.5706    2.6809 O   0  0  0  0  0  0  0  0  0  0  0  0
    6.2619   -4.1972    2.9276 O   0  0  0  0  0  0  0  0  0  0  0  0
    6.1480   -2.5012    1.0975 O   0  0  0  0  0  0  0  0  0  0  0  0
    6.3388   -1.2150    0.5284 C   0  0  0  0  0  0  0  0  0  0  0  0
    6.1470   -1.2529   -0.9936 C   0  0  1  0  0  0  0  0  0  0  0  0
    6.3951    0.0746   -1.4840 O   0  0  0  0  0  0  0  0  0  0  0  0
    6.2404    0.1895   -2.9076 C   0  0  2  0  0  0  0  0  0  0  0  0
    4.9026   -0.0917   -3.2618 O   0  0  0  0  0  0  0  0  0  0  0  0
    4.4783   -0.1244   -4.7998 P   0  0  0  0  0  0  0  0  0  0  0  0
    4.5018   -1.4625   -5.4559 O   0  0  0  0  0  0  0  0  0  0  0  0
    3.0036    0.4879   -4.7971 O   0  0  0  0  0  0  0  0  0  0  0  0
    5.3198    0.9993   -5.5548 O   0  0  0  0  0  0  0  0  0  0  0  0
    7.2907   -0.7073   -3.5897 C   0  0  2  0  0  0  0  0  0  0  0  0
    7.2870   -0.5768   -5.0216 O   0  0  0  0  0  0  0  0  0  0  0  0
    7.0509   -2.1581   -3.1782 C   0  0  1  0  0  0  0  0  0  0  0  0
    8.0734   -2.9776   -3.7683 O   0  0  0  0  0  0  0  0  0  0  0  0
    7.0799   -2.2926   -1.6520 C   0  0  2  0  0  0  0  0  0  0  0  0
    6.7153   -3.6413   -1.3346 O   0  0  0  0  0  0  0  0  0  0  0  0
    8.4445   -2.6262    3.5939 H   0  0  0  0  0  0  0  0  0  0  0  0
    5.3218   -4.3747    3.1145 H   0  0  0  0  0  0  0  0  0  0  0  0
    7.3440   -0.8474    0.7674 H   0  0  0  0  0  0  0  0  0  0  0  0
    5.6265   -0.5123    0.9759 H   0  0  0  0  0  0  0  0  0  0  0  0
    5.1029   -1.5322   -1.1875 H   0  0  0  0  0  0  0  0  0  0  0  0
    6.4379    1.2357   -3.1642 H   0  0  0  0  0  0  0  0  0  0  0  0
    2.4729    0.0763   -5.5021 H   0  0  0  0  0  0  0  0  0  0  0  0
    6.2039    0.6221   -5.7738 H   0  0  0  0  0  0  0  0  0  0  0  0
    8.2934   -0.4071   -3.2595 H   0  0  0  0  0  0  0  0  0  0  0  0
    7.7622   -1.3809   -5.3335 H   0  0  0  0  0  0  0  0  0  0  0  0
    6.1043   -2.5327   -3.5830 H   0  0  0  0  0  0  0  0  0  0  0  0
    7.9347   -3.8655   -3.3776 H   0  0  0  0  0  0  0  0  0  0  0  0
    8.1106   -2.1506   -1.3040 H   0  0  0  0  0  0  0  0  0  0  0  0
    6.5854   -3.6811   -0.3649 H   0  0  0  0  0  0  0  0  0  0  0  0
  1  2  2  0  0  0  0
  2  3  1  0  0  0  0
  2  4  1  0  0  0  0
  2  5  1  0  0  0  0
  3 21  1  0  0  0  0
  4 22  1  0  0  0  0
  5  6  1  0  0  0  0
  6 23  1  0  0  0  0
  6 24  1  0  0  0  0
  7  8  1  0  0  0  0
  7 19  1  0  0  0  0
  7  6  1  0  0  0  0
  7 25  1  6  0  0  0
  8  9  1  0  0  0  0
  9 10  1  0  0  0  0
  9 15  1  0  0  0  0
  9 26  1  6  0  0  0
 10 11  1  0  0  0  0
 11 12  2  0  0  0  0
 11 13  1  0  0  0  0
 11 14  1  0  0  0  0
 13 27  1  0  0  0  0
 14 28  1  0  0  0  0
 15 16  1  0  0  0  0
 15 17  1  0  0  0  0
 15 29  1  1  0  0  0
 16 30  1  0  0  0  0
 17 18  1  0  0  0  0
 17 19  1  0  0  0  0
 17 31  1  6  0  0  0
 18 32  1  0  0  0  0
 19 20  1  0  0  0  0
 19 33  1  1  0  0  0
 20 34  1  0  0  0  0
M  END
$$$$
