CHEBI:3697
 OpenBabel04242410533D

 50 50  0  0  1  0  0  0  0  0999 V2000
   -5.1630   -1.9439    0.9227 C   0  0  0  0  0  0  0  0  0  0  0  0
   -6.3766   -1.0490    0.9587 C   0  0  0  0  0  0  0  0  0  0  0  0
   -7.5722   -1.6700    1.6338 C   0  0  0  0  0  0  0  0  0  0  0  0
   -6.1380    0.4264    1.1739 C   0  0  0  0  0  0  0  0  0  0  0  0
   -6.5744   -0.0646   -0.1884 C   0  0  2  0  0  0  0  0  0  0  0  0
   -7.9237    0.2980   -0.7245 C   0  0  0  0  0  0  0  0  0  0  0  0
   -8.6512    1.0642   -0.1117 O   0  0  0  0  0  0  0  0  0  0  0  0
   -8.2103   -0.3584   -1.8930 N   0  0  0  0  0  0  0  0  0  0  0  0
   -9.2509   -0.1868   -2.7831 C   0  0  0  0  0  0  0  0  0  0  0  0
   -9.9365    0.9289   -3.0951 C   0  0  0  0  0  0  0  0  0  0  0  0
   -9.8060    2.3592   -2.6432 C   0  0  0  0  0  0  0  0  0  0  0  0
  -11.1933    2.9805   -2.4335 C   0  0  0  0  0  0  0  0  0  0  0  0
  -11.1709    4.4027   -1.8603 C   0  0  0  0  0  0  0  0  0  0  0  0
  -10.6120    5.4403   -2.8326 C   0  0  0  0  0  0  0  0  0  0  0  0
  -10.6247    7.1463   -2.1609 S   0  0  0  0  0  0  0  0  0  0  0  0
  -12.4212    7.4291   -1.9047 C   0  0  0  0  0  0  0  0  0  0  0  0
  -13.2118    7.5238   -3.2151 C   0  0  2  0  0  0  0  0  0  0  0  0
  -12.7785    8.6731   -4.0772 N   0  0  0  0  0  0  0  0  0  0  0  0
  -14.7082    7.6846   -2.9141 C   0  0  0  0  0  0  0  0  0  0  0  0
  -15.3205    7.1025   -2.0338 O   0  0  0  0  0  0  0  0  0  0  0  0
  -15.2939    8.5422   -3.7915 O   0  0  0  0  0  0  0  0  0  0  0  0
   -9.5939   -1.3996   -3.6086 C   0  0  0  0  0  0  0  0  0  0  0  0
  -10.4584   -1.5116   -4.4578 O   0  0  0  0  0  0  0  0  0  0  0  0
   -8.7806   -2.4361   -3.3020 O   0  0  0  0  0  0  0  0  0  0  0  0
   -4.7925   -2.1200    1.9384 H   0  0  0  0  0  0  0  0  0  0  0  0
   -4.3452   -1.5043    0.3414 H   0  0  0  0  0  0  0  0  0  0  0  0
   -5.4114   -2.9111    0.4743 H   0  0  0  0  0  0  0  0  0  0  0  0
   -8.3766   -0.9490    1.8092 H   0  0  0  0  0  0  0  0  0  0  0  0
   -7.2855   -2.0839    2.6070 H   0  0  0  0  0  0  0  0  0  0  0  0
   -7.9711   -2.4849    1.0211 H   0  0  0  0  0  0  0  0  0  0  0  0
   -5.1200    0.7866    1.2742 H   0  0  0  0  0  0  0  0  0  0  0  0
   -6.8494    0.9894    1.7704 H   0  0  0  0  0  0  0  0  0  0  0  0
   -5.8022   -0.0444   -0.9542 H   0  0  0  0  0  0  0  0  0  0  0  0
   -7.7113   -1.2359   -2.0278 H   0  0  0  0  0  0  0  0  0  0  0  0
  -10.6965    0.8277   -3.8747 H   0  0  0  0  0  0  0  0  0  0  0  0
   -9.2825    2.9085   -3.4342 H   0  0  0  0  0  0  0  0  0  0  0  0
   -9.2092    2.4787   -1.7432 H   0  0  0  0  0  0  0  0  0  0  0  0
  -11.7712    2.3481   -1.7472 H   0  0  0  0  0  0  0  0  0  0  0  0
  -11.7417    2.9887   -3.3851 H   0  0  0  0  0  0  0  0  0  0  0  0
  -10.6013    4.4112   -0.9235 H   0  0  0  0  0  0  0  0  0  0  0  0
  -12.2074    4.6504   -1.6093 H   0  0  0  0  0  0  0  0  0  0  0  0
  -11.1528    5.4262   -3.7836 H   0  0  0  0  0  0  0  0  0  0  0  0
   -9.5660    5.2110   -3.0594 H   0  0  0  0  0  0  0  0  0  0  0  0
  -12.5150    8.3720   -1.3516 H   0  0  0  0  0  0  0  0  0  0  0  0
  -12.8257    6.6607   -1.2406 H   0  0  0  0  0  0  0  0  0  0  0  0
  -13.1220    6.6066   -3.8066 H   0  0  0  0  0  0  0  0  0  0  0  0
  -12.6750    9.4963   -3.4704 H   0  0  0  0  0  0  0  0  0  0  0  0
  -11.8068    8.4784   -4.3498 H   0  0  0  0  0  0  0  0  0  0  0  0
  -14.5697    8.8610   -4.3879 H   0  0  0  0  0  0  0  0  0  0  0  0
   -9.1187   -3.1529   -3.8816 H   0  0  0  0  0  0  0  0  0  0  0  0
  1  2  1  0  0  0  0
  1 25  1  0  0  0  0
  1 26  1  0  0  0  0
  1 27  1  0  0  0  0
  2  3  1  0  0  0  0
  2  4  1  0  0  0  0
  2  5  1  0  0  0  0
  3 28  1  0  0  0  0
  3 29  1  0  0  0  0
  3 30  1  0  0  0  0
  4  5  1  0  0  0  0
  4 31  1  0  0  0  0
  4 32  1  0  0  0  0
  5  6  1  0  0  0  0
  5 33  1  6  0  0  0
  6  7  2  0  0  0  0
  6  8  1  0  0  0  0
  8  9  1  0  0  0  0
  8 34  1  0  0  0  0
  9 10  2  0  0  0  0
  9 22  1  0  0  0  0
 10 11  1  0  0  0  0
 10 35  1  0  0  0  0
 11 12  1  0  0  0  0
 11 36  1  0  0  0  0
 11 37  1  0  0  0  0
 12 13  1  0  0  0  0
 12 38  1  0  0  0  0
 12 39  1  0  0  0  0
 13 14  1  0  0  0  0
 13 40  1  0  0  0  0
 13 41  1  0  0  0  0
 14 15  1  0  0  0  0
 14 42  1  0  0  0  0
 14 43  1  0  0  0  0
 15 16  1  0  0  0  0
 16 44  1  0  0  0  0
 16 45  1  0  0  0  0
 17 19  1  0  0  0  0
 17 18  1  0  0  0  0
 17 16  1  0  0  0  0
 17 46  1  6  0  0  0
 18 47  1  0  0  0  0
 18 48  1  0  0  0  0
 19 20  2  0  0  0  0
 19 21  1  0  0  0  0
 21 49  1  0  0  0  0
 22 23  2  0  0  0  0
 22 24  1  0  0  0  0
 24 50  1  0  0  0  0
M  END
$$$$
