CHEBI:3243
 OpenBabel04242410473D

 69 72  0  0  1  0  0  0  0  0999 V2000
    1.3354    0.8182   -2.9755 O   0  0  0  0  0  0  0  0  0  0  0  0
    2.4481    1.1025   -3.3941 C   0  0  0  0  0  0  0  0  0  0  0  0
    3.0293    2.3014   -3.1380 O   0  0  0  0  0  0  0  0  0  0  0  0
    3.3461    0.1890   -4.2195 C   0  0  1  0  0  0  0  0  0  0  0  0
    4.7109    0.6195   -4.0262 O   0  0  0  0  0  0  0  0  0  0  0  0
    2.9618    0.2989   -5.6955 C   0  0  2  0  0  0  0  0  0  0  0  0
    2.9578    1.6692   -6.1154 O   0  0  0  0  0  0  0  0  0  0  0  0
    1.6347   -0.4139   -5.9399 C   0  0  0  0  0  0  0  0  0  0  0  0
    1.3199   -1.5257   -5.5540 O   0  0  0  0  0  0  0  0  0  0  0  0
    0.8024    0.3160   -6.7179 O   0  0  0  0  0  0  0  0  0  0  0  0
    1.2413    0.7549   -0.2034 O   0  0  0  0  0  0  0  0  0  0  0  0
    2.5252    0.3785    0.0575 C   0  0  0  0  0  0  0  0  0  0  0  0
    2.7619   -0.9467    0.3770 C   0  0  0  0  0  0  0  0  0  0  0  0
    4.0595   -1.3519    0.6621 C   0  0  0  0  0  0  0  0  0  0  0  0
    5.1165   -0.4245    0.6575 C   0  0  0  0  0  0  0  0  0  0  0  0
    4.8796    0.9304    0.3248 C   0  0  0  0  0  0  0  0  0  0  0  0
    3.5582    1.3140    0.0256 C   0  0  0  0  0  0  0  0  0  0  0  0
    6.0232    1.9711    0.4503 C   0  0  1  0  0  0  0  0  0  0  0  0
    5.9057    3.1064   -0.6059 C   0  0  0  0  0  0  0  0  0  0  0  0
    7.0772    4.0957   -0.5946 C   0  0  0  0  0  0  0  0  0  0  0  0
    8.4394    3.4157   -0.6528 C   0  0  0  0  0  0  0  0  0  0  0  0
    8.5787    2.3060    0.3894 C   0  0  0  0  0  0  0  0  0  0  0  0
    7.4184    1.2868    0.2922 C   0  0  2  0  0  0  0  0  0  0  0  0
    7.5206    0.6982   -1.0270 O   0  0  0  0  0  0  0  0  0  0  0  0
    7.5212    0.1743    1.3764 C   0  0  1  0  0  0  0  0  0  0  0  0
    6.4926   -0.9281    1.0222 C   0  0  0  0  0  0  0  0  0  0  0  0
    7.4498    0.7337    2.7530 N   0  0  0  0  0  0  0  0  0  0  0  0
    7.5829   -0.2592    3.8406 C   0  0  0  0  0  0  0  0  0  0  0  0
    8.9365   -0.9717    3.8971 C   0  0  0  0  0  0  0  0  0  0  0  0
    9.0163   -1.9694    5.0841 C   0  0  0  0  0  0  0  0  0  0  0  0
    9.7138   -2.9782    4.1640 C   0  0  0  0  0  0  0  0  0  0  0  0
    9.2165   -2.1741    2.9569 C   0  0  0  0  0  0  0  0  0  0  0  0
    6.2134    1.5122    2.9789 C   0  0  0  0  0  0  0  0  0  0  0  0
    5.9238    2.5537    1.8891 C   0  0  0  0  0  0  0  0  0  0  0  0
    3.8907    2.3291   -3.6209 H   0  0  0  0  0  0  0  0  0  0  0  0
    3.2699   -0.8357   -3.8410 H   0  0  0  0  0  0  0  0  0  0  0  0
    4.9804    0.3265   -3.1305 H   0  0  0  0  0  0  0  0  0  0  0  0
    3.7121   -0.2014   -6.3180 H   0  0  0  0  0  0  0  0  0  0  0  0
    2.2967    1.7263   -6.8354 H   0  0  0  0  0  0  0  0  0  0  0  0
   -0.0163   -0.2250   -6.7715 H   0  0  0  0  0  0  0  0  0  0  0  0
    1.2206    1.0962   -1.1233 H   0  0  0  0  0  0  0  0  0  0  0  0
    1.9407   -1.6559    0.4107 H   0  0  0  0  0  0  0  0  0  0  0  0
    4.2432   -2.3926    0.9198 H   0  0  0  0  0  0  0  0  0  0  0  0
    3.3060    2.3480   -0.1894 H   0  0  0  0  0  0  0  0  0  0  0  0
    4.9881    3.6871   -0.4558 H   0  0  0  0  0  0  0  0  0  0  0  0
    5.8295    2.6677   -1.6100 H   0  0  0  0  0  0  0  0  0  0  0  0
    7.0232    4.7227    0.3028 H   0  0  0  0  0  0  0  0  0  0  0  0
    6.9791    4.7798   -1.4460 H   0  0  0  0  0  0  0  0  0  0  0  0
    9.2283    4.1617   -0.5000 H   0  0  0  0  0  0  0  0  0  0  0  0
    8.5954    3.0017   -1.6563 H   0  0  0  0  0  0  0  0  0  0  0  0
    8.6460    2.7549    1.3862 H   0  0  0  0  0  0  0  0  0  0  0  0
    9.5361    1.7977    0.2168 H   0  0  0  0  0  0  0  0  0  0  0  0
    8.4207    0.3389   -1.1163 H   0  0  0  0  0  0  0  0  0  0  0  0
    8.5136   -0.2768    1.2608 H   0  0  0  0  0  0  0  0  0  0  0  0
    6.4041   -1.6545    1.8348 H   0  0  0  0  0  0  0  0  0  0  0  0
    6.8709   -1.4945    0.1601 H   0  0  0  0  0  0  0  0  0  0  0  0
    6.7628   -0.9867    3.8215 H   0  0  0  0  0  0  0  0  0  0  0  0
    7.4782    0.2787    4.7932 H   0  0  0  0  0  0  0  0  0  0  0  0
    9.7724   -0.2580    3.9171 H   0  0  0  0  0  0  0  0  0  0  0  0
    8.0464   -2.3226    5.4539 H   0  0  0  0  0  0  0  0  0  0  0  0
    9.6122   -1.6328    5.9375 H   0  0  0  0  0  0  0  0  0  0  0  0
    9.3287   -4.0008    4.2232 H   0  0  0  0  0  0  0  0  0  0  0  0
   10.8028   -2.9991    4.2689 H   0  0  0  0  0  0  0  0  0  0  0  0
    8.3343   -2.6170    2.4873 H   0  0  0  0  0  0  0  0  0  0  0  0
    9.9747   -1.9943    2.1887 H   0  0  0  0  0  0  0  0  0  0  0  0
    6.3036    2.0547    3.9291 H   0  0  0  0  0  0  0  0  0  0  0  0
    5.3482    0.8478    3.0949 H   0  0  0  0  0  0  0  0  0  0  0  0
    6.6216    3.3866    2.0267 H   0  0  0  0  0  0  0  0  0  0  0  0
    4.9262    2.9783    2.0637 H   0  0  0  0  0  0  0  0  0  0  0  0
  1  2  2  0  0  0  0
  2  3  1  0  0  0  0
  2  4  1  0  0  0  0
  3 35  1  0  0  0  0
  4  5  1  0  0  0  0
  4 36  1  6  0  0  0
  5 37  1  0  0  0  0
  6  8  1  0  0  0  0
  6  7  1  0  0  0  0
  6  4  1  0  0  0  0
  6 38  1  6  0  0  0
  7 39  1  0  0  0  0
  8  9  2  0  0  0  0
  8 10  1  0  0  0  0
 10 40  1  0  0  0  0
 11 12  1  0  0  0  0
 11 41  1  0  0  0  0
 12 13  1  0  0  0  0
 12 17  2  0  0  0  0
 13 14  2  0  0  0  0
 13 42  1  0  0  0  0
 14 15  1  0  0  0  0
 14 43  1  0  0  0  0
 15 16  2  0  0  0  0
 15 26  1  0  0  0  0
 16 17  1  0  0  0  0
 17 44  1  0  0  0  0
 18 16  1  1  0  0  0
 18 19  1  0  0  0  0
 18 23  1  0  0  0  0
 18 34  1  0  0  0  0
 19 20  1  0  0  0  0
 19 45  1  0  0  0  0
 19 46  1  0  0  0  0
 20 21  1  0  0  0  0
 20 47  1  0  0  0  0
 20 48  1  0  0  0  0
 21 22  1  0  0  0  0
 21 49  1  0  0  0  0
 21 50  1  0  0  0  0
 22 23  1  0  0  0  0
 22 51  1  0  0  0  0
 22 52  1  0  0  0  0
 23 24  1  6  0  0  0
 23 25  1  0  0  0  0
 24 53  1  0  0  0  0
 25 26  1  0  0  0  0
 25 27  1  0  0  0  0
 25 54  1  1  0  0  0
 26 55  1  0  0  0  0
 26 56  1  0  0  0  0
 27 28  1  0  0  0  0
 27 33  1  0  0  0  0
 28 29  1  0  0  0  0
 28 57  1  0  0  0  0
 28 58  1  0  0  0  0
 29 30  1  0  0  0  0
 29 32  1  0  0  0  0
 29 59  1  0  0  0  0
 30 31  1  0  0  0  0
 30 60  1  0  0  0  0
 30 61  1  0  0  0  0
 31 32  1  0  0  0  0
 31 62  1  0  0  0  0
 31 63  1  0  0  0  0
 32 64  1  0  0  0  0
 32 65  1  0  0  0  0
 33 34  1  0  0  0  0
 33 66  1  0  0  0  0
 33 67  1  0  0  0  0
 34 68  1  0  0  0  0
 34 69  1  0  0  0  0
M  END
$$$$
