CHEBI:16704
 OpenBabel04242415063D

 29 30  0  0  1  0  0  0  0  0999 V2000
    1.9705    4.4753   -1.2155 O   0  0  0  0  0  0  0  0  0  0  0  0
    2.9066    3.7033   -1.0506 C   0  0  0  0  0  0  0  0  0  0  0  0
    4.2733    4.2032   -0.8433 C   0  0  0  0  0  0  0  0  0  0  0  0
    5.2577    3.3235   -0.6516 C   0  0  0  0  0  0  0  0  0  0  0  0
    5.0313    1.9608   -0.6239 N   0  0  0  0  0  0  0  0  0  0  0  0
    6.1386    1.0178   -0.4758 C   0  0  2  0  0  0  0  0  0  0  0  0
    7.1671    1.5773    0.3717 O   0  0  0  0  0  0  0  0  0  0  0  0
    8.4557    1.2071   -0.1746 C   0  0  2  0  0  0  0  0  0  0  0  0
    9.2094    2.4803   -0.5786 C   0  0  0  0  0  0  0  0  0  0  0  0
    8.6248    3.0981   -1.7202 O   0  0  0  0  0  0  0  0  0  0  0  0
    8.1932    0.2484   -1.3359 C   0  0  1  0  0  0  0  0  0  0  0  0
    8.1164   -1.1093   -0.8529 O   0  0  0  0  0  0  0  0  0  0  0  0
    6.8076    0.6504   -1.8101 C   0  0  1  0  0  0  0  0  0  0  0  0
    6.1758   -0.4128   -2.5199 O   0  0  0  0  0  0  0  0  0  0  0  0
    3.7646    1.4296   -0.8353 C   0  0  0  0  0  0  0  0  0  0  0  0
    3.4992    0.2296   -0.8235 O   0  0  0  0  0  0  0  0  0  0  0  0
    2.7663    2.3468   -1.0475 N   0  0  0  0  0  0  0  0  0  0  0  0
    4.4276    5.2731   -0.8591 H   0  0  0  0  0  0  0  0  0  0  0  0
    6.2782    3.6625   -0.5032 H   0  0  0  0  0  0  0  0  0  0  0  0
    5.7669    0.1147    0.0246 H   0  0  0  0  0  0  0  0  0  0  0  0
    9.0076    0.7136    0.6331 H   0  0  0  0  0  0  0  0  0  0  0  0
   10.2490    2.2411   -0.8228 H   0  0  0  0  0  0  0  0  0  0  0  0
    9.1893    3.2066    0.2404 H   0  0  0  0  0  0  0  0  0  0  0  0
    9.1102    3.9277   -1.8793 H   0  0  0  0  0  0  0  0  0  0  0  0
    8.9472    0.2698   -2.1280 H   0  0  0  0  0  0  0  0  0  0  0  0
    9.0166   -1.3823   -0.6006 H   0  0  0  0  0  0  0  0  0  0  0  0
    6.8547    1.5166   -2.4769 H   0  0  0  0  0  0  0  0  0  0  0  0
    6.3601   -1.2205   -1.9983 H   0  0  0  0  0  0  0  0  0  0  0  0
    1.8407    1.9771   -1.1926 H   0  0  0  0  0  0  0  0  0  0  0  0
  1  2  2  0  0  0  0
  2  3  1  0  0  0  0
  2 17  1  0  0  0  0
  3  4  2  0  0  0  0
  3 18  1  0  0  0  0
  4  5  1  0  0  0  0
  4 19  1  0  0  0  0
  5  6  1  0  0  0  0
  5 15  1  0  0  0  0
  6  7  1  0  0  0  0
  6 13  1  0  0  0  0
  6 20  1  1  0  0  0
  7  8  1  0  0  0  0
  8  9  1  0  0  0  0
  8 11  1  0  0  0  0
  8 21  1  1  0  0  0
  9 10  1  0  0  0  0
  9 22  1  0  0  0  0
  9 23  1  0  0  0  0
 10 24  1  0  0  0  0
 11 12  1  0  0  0  0
 11 13  1  0  0  0  0
 11 25  1  6  0  0  0
 12 26  1  0  0  0  0
 13 14  1  0  0  0  0
 13 27  1  6  0  0  0
 14 28  1  0  0  0  0
 15 16  2  0  0  0  0
 15 17  1  0  0  0  0
 17 29  1  0  0  0  0
M  END
$$$$
