CHEBI:3216
 OpenBabel04242410463D

 75 81  0  0  1  0  0  0  0  0999 V2000
    4.6535    4.1142    0.5060 C   0  0  0  0  0  0  0  0  0  0  0  0
    4.1467    2.7868    0.4297 O   0  0  0  0  0  0  0  0  0  0  0  0
    3.5985    2.2474    1.6338 C   0  0  2  0  0  0  0  0  0  0  0  0
    2.1331    1.7317    1.2308 C   0  0  0  0  0  0  0  0  0  0  0  0
    1.3538    1.2530    2.4885 C   0  0  0  0  0  0  0  0  0  0  0  0
    2.3086    1.1135    3.7116 C   0  0  1  0  0  0  0  0  0  0  0  0
    3.4796    0.1835    3.2009 C   0  0  0  0  0  0  0  0  0  0  0  0
    4.2718    0.8490    2.0065 C   0  0  2  0  0  0  0  0  0  0  0  0
    5.8567    0.7690    1.9375 C   0  0  2  0  0  0  0  0  0  0  0  0
    6.5566    1.7247    2.9127 C   0  0  0  0  0  0  0  0  0  0  0  0
    6.2576    1.2662    0.6322 O   0  0  0  0  0  0  0  0  0  0  0  0
    6.4932   -0.6987    1.9870 C   0  0  0  0  0  0  0  0  0  0  0  0
    5.9935   -1.5631    0.8016 C   0  0  0  0  0  0  0  0  0  0  0  0
    8.0406   -0.6233    1.8502 C   0  0  0  0  0  0  0  0  0  0  0  0
    6.2054   -1.4838    3.2800 C   0  0  0  0  0  0  0  0  0  0  0  0
    1.5752    0.7206    5.0449 C   0  0  1  0  0  0  0  0  0  0  0  0
    0.5479    1.8597    5.5381 C   0  0  0  0  0  0  0  0  0  0  0  0
    1.0279    3.2898    5.3936 C   0  0  0  0  0  0  0  0  0  0  0  0
    0.4431    4.4556    5.8754 C   0  0  0  0  0  0  0  0  0  0  0  0
    1.0090    5.7312    5.5638 C   0  0  0  0  0  0  0  0  0  0  0  0
    2.1407    5.8690    4.7324 C   0  0  0  0  0  0  0  0  0  0  0  0
    2.6381    7.0817    4.3850 O   0  0  0  0  0  0  0  0  0  0  0  0
    2.7025    4.7200    4.2455 C   0  0  0  0  0  0  0  0  0  0  0  0
    2.1483    3.4946    4.6319 C   0  0  0  0  0  0  0  0  0  0  0  0
    2.9837    2.4264    4.0603 C   0  0  2  0  0  0  0  0  0  0  0  0
    4.0723    2.2270    5.1502 C   0  0  0  0  0  0  0  0  0  0  0  0
    3.5012    1.5061    6.3887 C   0  0  0  0  0  0  0  0  0  0  0  0
    2.6207    0.3737    6.0465 N   0  0  0  0  0  0  0  0  0  0  0  0
    2.1247   -0.2599    7.2739 C   0  0  0  0  0  0  0  0  0  0  0  0
    1.3912   -1.5364    6.9878 C   0  0  0  0  0  0  0  0  0  0  0  0
    0.7507   -2.2997    8.1209 C   0  0  0  0  0  0  0  0  0  0  0  0
   -0.1124   -1.6076    7.1051 C   0  0  0  0  0  0  0  0  0  0  0  0
    3.2435    3.2294    2.8046 C   0  0  1  0  0  0  0  0  0  0  0  0
    3.7185    4.5104    3.2813 O   0  0  0  0  0  0  0  0  0  0  0  0
    5.4243    4.1935    1.2767 H   0  0  0  0  0  0  0  0  0  0  0  0
    3.8439    4.8285    0.6747 H   0  0  0  0  0  0  0  0  0  0  0  0
    5.1155    4.3503   -0.4569 H   0  0  0  0  0  0  0  0  0  0  0  0
    2.1856    0.9278    0.4846 H   0  0  0  0  0  0  0  0  0  0  0  0
    1.5710    2.5242    0.7170 H   0  0  0  0  0  0  0  0  0  0  0  0
    0.8703    0.2926    2.2715 H   0  0  0  0  0  0  0  0  0  0  0  0
    0.5441    1.9619    2.6954 H   0  0  0  0  0  0  0  0  0  0  0  0
    3.0490   -0.7674    2.8584 H   0  0  0  0  0  0  0  0  0  0  0  0
    4.1569   -0.0846    4.0095 H   0  0  0  0  0  0  0  0  0  0  0  0
    4.0160    0.2147    1.1442 H   0  0  0  0  0  0  0  0  0  0  0  0
    6.6792    1.2948    3.9078 H   0  0  0  0  0  0  0  0  0  0  0  0
    6.0224    2.6737    3.0019 H   0  0  0  0  0  0  0  0  0  0  0  0
    7.5566    1.9985    2.5547 H   0  0  0  0  0  0  0  0  0  0  0  0
    5.5256    1.7926    0.2542 H   0  0  0  0  0  0  0  0  0  0  0  0
    4.9167   -1.7489    0.8594 H   0  0  0  0  0  0  0  0  0  0  0  0
    6.4845   -2.5438    0.7967 H   0  0  0  0  0  0  0  0  0  0  0  0
    6.2067   -1.0936   -0.1647 H   0  0  0  0  0  0  0  0  0  0  0  0
    8.3469   -0.0699    0.9564 H   0  0  0  0  0  0  0  0  0  0  0  0
    8.4807   -1.6249    1.7734 H   0  0  0  0  0  0  0  0  0  0  0  0
    8.4986   -0.1439    2.7221 H   0  0  0  0  0  0  0  0  0  0  0  0
    5.1765   -1.8511    3.3143 H   0  0  0  0  0  0  0  0  0  0  0  0
    6.4004   -0.8905    4.1773 H   0  0  0  0  0  0  0  0  0  0  0  0
    6.8395   -2.3770    3.3439 H   0  0  0  0  0  0  0  0  0  0  0  0
    0.9866   -0.1790    4.8299 H   0  0  0  0  0  0  0  0  0  0  0  0
    0.2507    1.6811    6.5760 H   0  0  0  0  0  0  0  0  0  0  0  0
   -0.3620    1.7609    4.9322 H   0  0  0  0  0  0  0  0  0  0  0  0
   -0.4526    4.4076    6.4898 H   0  0  0  0  0  0  0  0  0  0  0  0
    0.5196    6.6165    5.9653 H   0  0  0  0  0  0  0  0  0  0  0  0
    2.1277    7.7711    4.8393 H   0  0  0  0  0  0  0  0  0  0  0  0
    4.5349    3.1684    5.4754 H   0  0  0  0  0  0  0  0  0  0  0  0
    4.8968    1.6289    4.7835 H   0  0  0  0  0  0  0  0  0  0  0  0
    2.9795    2.2262    7.0313 H   0  0  0  0  0  0  0  0  0  0  0  0
    4.3522    1.1396    6.9770 H   0  0  0  0  0  0  0  0  0  0  0  0
    2.9846   -0.5289    7.9008 H   0  0  0  0  0  0  0  0  0  0  0  0
    1.5110    0.4266    7.8688 H   0  0  0  0  0  0  0  0  0  0  0  0
    1.8856   -2.1343    6.2291 H   0  0  0  0  0  0  0  0  0  0  0  0
    0.7983   -1.8828    9.1204 H   0  0  0  0  0  0  0  0  0  0  0  0
    0.8006   -3.3826    8.0914 H   0  0  0  0  0  0  0  0  0  0  0  0
   -0.6559   -0.7261    7.4254 H   0  0  0  0  0  0  0  0  0  0  0  0
   -0.6470   -2.2209    6.3889 H   0  0  0  0  0  0  0  0  0  0  0  0
    2.3049    3.6153    2.3521 H   0  0  0  0  0  0  0  0  0  0  0  0
  1  2  1  0  0  0  0
  1 35  1  0  0  0  0
  1 36  1  0  0  0  0
  1 37  1  0  0  0  0
  3  4  1  0  0  0  0
  3  8  1  0  0  0  0
  3 33  1  0  0  0  0
  3  2  1  1  0  0  0
  4  5  1  0  0  0  0
  4 38  1  0  0  0  0
  4 39  1  0  0  0  0
  5 40  1  0  0  0  0
  5 41  1  0  0  0  0
  6  5  1  1  0  0  0
  6  7  1  0  0  0  0
  6 16  1  0  0  0  0
  6 25  1  0  0  0  0
  7  8  1  0  0  0  0
  7 42  1  0  0  0  0
  7 43  1  0  0  0  0
  8  9  1  0  0  0  0
  8 44  1  6  0  0  0
  9 12  1  0  0  0  0
  9 11  1  6  0  0  0
  9 10  1  0  0  0  0
 10 45  1  0  0  0  0
 10 46  1  0  0  0  0
 10 47  1  0  0  0  0
 11 48  1  0  0  0  0
 12 13  1  0  0  0  0
 12 14  1  0  0  0  0
 12 15  1  0  0  0  0
 13 49  1  0  0  0  0
 13 50  1  0  0  0  0
 13 51  1  0  0  0  0
 14 52  1  0  0  0  0
 14 53  1  0  0  0  0
 14 54  1  0  0  0  0
 15 55  1  0  0  0  0
 15 56  1  0  0  0  0
 15 57  1  0  0  0  0
 16 17  1  0  0  0  0
 16 28  1  0  0  0  0
 16 58  1  1  0  0  0
 17 18  1  0  0  0  0
 17 59  1  0  0  0  0
 17 60  1  0  0  0  0
 18 19  1  0  0  0  0
 18 24  2  0  0  0  0
 19 20  2  0  0  0  0
 19 61  1  0  0  0  0
 20 21  1  0  0  0  0
 20 62  1  0  0  0  0
 21 23  2  0  0  0  0
 21 22  1  0  0  0  0
 22 63  1  0  0  0  0
 23 24  1  0  0  0  0
 23 34  1  0  0  0  0
 25 24  1  6  0  0  0
 25 26  1  0  0  0  0
 25 33  1  0  0  0  0
 26 27  1  0  0  0  0
 26 64  1  0  0  0  0
 26 65  1  0  0  0  0
 27 28  1  0  0  0  0
 27 66  1  0  0  0  0
 27 67  1  0  0  0  0
 28 29  1  0  0  0  0
 29 30  1  0  0  0  0
 29 68  1  0  0  0  0
 29 69  1  0  0  0  0
 30 31  1  0  0  0  0
 30 32  1  0  0  0  0
 30 70  1  0  0  0  0
 31 32  1  0  0  0  0
 31 71  1  0  0  0  0
 31 72  1  0  0  0  0
 32 73  1  0  0  0  0
 32 74  1  0  0  0  0
 33 34  1  0  0  0  0
 33 75  1  6  0  0  0
M  END
$$$$
