CHEBI:9190
 OpenBabel04242411373D

 73 78  0  0  1  0  0  0  0  0999 V2000
   -0.5862    0.5847    0.8981 C   0  0  0  0  0  0  0  0  0  0  0  0
    0.8333    1.1196    1.0774 C   0  0  2  0  0  0  0  0  0  0  0  0
    0.8302    2.5677    1.5809 C   0  0  0  0  0  0  0  0  0  0  0  0
    0.5389    3.5876    0.4585 C   0  0  0  0  0  0  0  0  0  0  0  0
    1.4967    3.3901   -0.7310 C   0  0  1  0  0  0  0  0  0  0  0  0
    1.3303    2.0139   -1.2120 N   0  0  0  0  0  0  0  0  0  0  0  0
    1.6484    0.9979   -0.2081 C   0  0  0  0  0  0  0  0  0  0  0  0
    2.8031    3.5428   -0.1909 O   0  0  0  0  0  0  0  0  0  0  0  0
    3.4503    4.6462   -0.8126 C   0  0  1  0  0  0  0  0  0  0  0  0
    4.8800    4.2798   -0.8327 C   0  0  0  0  0  0  0  0  0  0  0  0
    4.9622    3.3433   -2.0231 C   0  0  1  0  0  0  0  0  0  0  0  0
    5.1493    1.8532   -2.0216 C   0  0  2  0  0  0  0  0  0  0  0  0
    5.6442    1.3168   -0.6979 C   0  0  0  0  0  0  0  0  0  0  0  0
    7.0628    1.6544   -0.4536 C   0  0  0  0  0  0  0  0  0  0  0  0
    7.9644    1.5789   -1.4472 C   0  0  0  0  0  0  0  0  0  0  0  0
    9.4077    1.3586   -1.0538 C   0  0  0  0  0  0  0  0  0  0  0  0
    9.7025   -0.1452   -1.2019 C   0  0  1  0  0  0  0  0  0  0  0  0
    9.1034   -0.8728   -0.1207 O   0  0  0  0  0  0  0  0  0  0  0  0
    9.2153   -0.7421   -2.5345 C   0  0  0  0  0  0  0  0  0  0  0  0
    7.8099   -0.2759   -2.9856 C   0  0  0  0  0  0  0  0  0  0  0  0
    7.5840    1.2709   -2.9058 C   0  0  1  0  0  0  0  0  0  0  0  0
    8.5583    1.9563   -3.8868 C   0  0  0  0  0  0  0  0  0  0  0  0
    6.0508    1.6107   -3.2917 C   0  0  1  0  0  0  0  0  0  0  0  0
    5.7875    2.7409   -4.4811 C   0  0  0  0  0  0  0  0  0  0  0  0
    4.9000    4.0640   -4.1897 C   0  0  0  0  0  0  0  0  0  0  0  0
    3.8623    3.7128   -3.0865 C   0  0  1  0  0  0  0  0  0  0  0  0
    2.9708    2.7094   -3.8981 C   0  0  0  0  0  0  0  0  0  0  0  0
    2.9575    4.7375   -2.2680 C   0  0  1  0  0  0  0  0  0  0  0  0
    1.4520    4.4292   -1.9181 C   0  0  2  0  0  0  0  0  0  0  0  0
    0.7351    5.7399   -1.5337 C   0  0  0  0  0  0  0  0  0  0  0  0
   -1.1126    0.5839    1.8584 H   0  0  0  0  0  0  0  0  0  0  0  0
   -0.5659   -0.4487    0.5345 H   0  0  0  0  0  0  0  0  0  0  0  0
   -1.1665    1.1819    0.1895 H   0  0  0  0  0  0  0  0  0  0  0  0
    1.3183    0.4915    1.8368 H   0  0  0  0  0  0  0  0  0  0  0  0
    1.8185    2.7837    2.0103 H   0  0  0  0  0  0  0  0  0  0  0  0
    0.1127    2.6913    2.3990 H   0  0  0  0  0  0  0  0  0  0  0  0
    0.6789    4.5802    0.9024 H   0  0  0  0  0  0  0  0  0  0  0  0
   -0.5055    3.5084    0.1383 H   0  0  0  0  0  0  0  0  0  0  0  0
    1.9975    1.8617   -1.9540 H   0  0  0  0  0  0  0  0  0  0  0  0
    2.7177    1.0348    0.0278 H   0  0  0  0  0  0  0  0  0  0  0  0
    1.4840    0.0122   -0.6615 H   0  0  0  0  0  0  0  0  0  0  0  0
    3.2656    5.5503   -0.2238 H   0  0  0  0  0  0  0  0  0  0  0  0
    5.2392    3.8499    0.1039 H   0  0  0  0  0  0  0  0  0  0  0  0
    5.4716    5.1859   -1.0262 H   0  0  0  0  0  0  0  0  0  0  0  0
    5.9669    3.6939   -2.3205 H   0  0  0  0  0  0  0  0  0  0  0  0
    4.1908    1.3483   -2.1629 H   0  0  0  0  0  0  0  0  0  0  0  0
    5.5363    0.2248   -0.6739 H   0  0  0  0  0  0  0  0  0  0  0  0
    5.0247    1.6841    0.1272 H   0  0  0  0  0  0  0  0  0  0  0  0
    7.3715    1.7478    0.5850 H   0  0  0  0  0  0  0  0  0  0  0  0
    9.5809    1.6669   -0.0146 H   0  0  0  0  0  0  0  0  0  0  0  0
   10.0783    1.9639   -1.6695 H   0  0  0  0  0  0  0  0  0  0  0  0
   10.7805   -0.3089   -1.1040 H   0  0  0  0  0  0  0  0  0  0  0  0
    8.1480   -0.6871   -0.1378 H   0  0  0  0  0  0  0  0  0  0  0  0
    9.2012   -1.8366   -2.4588 H   0  0  0  0  0  0  0  0  0  0  0  0
    9.9384   -0.4896   -3.3172 H   0  0  0  0  0  0  0  0  0  0  0  0
    7.0631   -0.7914   -2.3654 H   0  0  0  0  0  0  0  0  0  0  0  0
    7.6413   -0.6257   -4.0120 H   0  0  0  0  0  0  0  0  0  0  0  0
    9.6033    1.6716   -3.7365 H   0  0  0  0  0  0  0  0  0  0  0  0
    8.5203    3.0463   -3.7849 H   0  0  0  0  0  0  0  0  0  0  0  0
    8.3298    1.6778   -4.9218 H   0  0  0  0  0  0  0  0  0  0  0  0
    5.6630    0.6859   -3.7460 H   0  0  0  0  0  0  0  0  0  0  0  0
    5.2722    2.1959   -5.2855 H   0  0  0  0  0  0  0  0  0  0  0  0
    6.7112    3.0856   -4.9455 H   0  0  0  0  0  0  0  0  0  0  0  0
    4.4372    4.4086   -5.1233 H   0  0  0  0  0  0  0  0  0  0  0  0
    5.5571    4.8927   -3.8900 H   0  0  0  0  0  0  0  0  0  0  0  0
    2.8806    3.0265   -4.9473 H   0  0  0  0  0  0  0  0  0  0  0  0
    1.9294    2.6517   -3.6082 H   0  0  0  0  0  0  0  0  0  0  0  0
    3.3442    1.6850   -3.9321 H   0  0  0  0  0  0  0  0  0  0  0  0
    3.0961    5.7403   -2.6872 H   0  0  0  0  0  0  0  0  0  0  0  0
    0.8833    4.0546   -2.7728 H   0  0  0  0  0  0  0  0  0  0  0  0
    1.1839    6.2301   -0.6644 H   0  0  0  0  0  0  0  0  0  0  0  0
   -0.3193    5.5515   -1.3060 H   0  0  0  0  0  0  0  0  0  0  0  0
    0.7679    6.4517   -2.3654 H   0  0  0  0  0  0  0  0  0  0  0  0
  1  2  1  0  0  0  0
  1 31  1  0  0  0  0
  1 32  1  0  0  0  0
  1 33  1  0  0  0  0
  2  3  1  0  0  0  0
  2  7  1  0  0  0  0
  2 34  1  1  0  0  0
  3  4  1  0  0  0  0
  3 35  1  0  0  0  0
  3 36  1  0  0  0  0
  4  5  1  0  0  0  0
  4 37  1  0  0  0  0
  4 38  1  0  0  0  0
  5  6  1  0  0  0  0
  5  8  1  6  0  0  0
  5 29  1  0  0  0  0
  6  7  1  0  0  0  0
  6 39  1  0  0  0  0
  7 40  1  0  0  0  0
  7 41  1  0  0  0  0
  8  9  1  0  0  0  0
  9 10  1  0  0  0  0
  9 28  1  0  0  0  0
  9 42  1  1  0  0  0
 10 11  1  0  0  0  0
 10 43  1  0  0  0  0
 10 44  1  0  0  0  0
 11 12  1  0  0  0  0
 11 26  1  0  0  0  0
 11 45  1  6  0  0  0
 12 13  1  0  0  0  0
 12 23  1  0  0  0  0
 12 46  1  6  0  0  0
 13 14  1  0  0  0  0
 13 47  1  0  0  0  0
 13 48  1  0  0  0  0
 14 15  2  0  0  0  0
 14 49  1  0  0  0  0
 15 16  1  0  0  0  0
 15 21  1  0  0  0  0
 16 17  1  0  0  0  0
 16 50  1  0  0  0  0
 16 51  1  0  0  0  0
 17 18  1  0  0  0  0
 17 19  1  0  0  0  0
 17 52  1  1  0  0  0
 18 53  1  0  0  0  0
 19 20  1  0  0  0  0
 19 54  1  0  0  0  0
 19 55  1  0  0  0  0
 20 21  1  0  0  0  0
 20 56  1  0  0  0  0
 20 57  1  0  0  0  0
 21 22  1  1  0  0  0
 21 23  1  0  0  0  0
 22 58  1  0  0  0  0
 22 59  1  0  0  0  0
 22 60  1  0  0  0  0
 23 24  1  0  0  0  0
 23 61  1  1  0  0  0
 24 25  1  0  0  0  0
 24 62  1  0  0  0  0
 24 63  1  0  0  0  0
 25 26  1  0  0  0  0
 25 64  1  0  0  0  0
 25 65  1  0  0  0  0
 26 27  1  6  0  0  0
 26 28  1  0  0  0  0
 27 66  1  0  0  0  0
 27 67  1  0  0  0  0
 27 68  1  0  0  0  0
 28 29  1  0  0  0  0
 28 69  1  6  0  0  0
 29 30  1  0  0  0  0
 29 70  1  6  0  0  0
 30 71  1  0  0  0  0
 30 72  1  0  0  0  0
 30 73  1  0  0  0  0
M  END
$$$$
