CHEBI:16314
 OpenBabel04242414103D

 99100  0  0  1  0  0  0  0  0999 V2000
   13.8514    1.8838   30.7258 O   0  0  0  0  0  0  0  0  0  0  0  0
   14.0086    2.2374   29.5666 C   0  0  0  0  0  0  0  0  0  0  0  0
   15.2039    2.2962   28.9082 N   0  0  0  0  0  0  0  0  0  0  0  0
   16.4402    1.9496   29.5665 C   0  0  0  0  0  0  0  0  0  0  0  0
   17.5722    2.5421   28.8142 C   0  0  0  0  0  0  0  0  0  0  0  0
   18.6324    2.0074   28.1132 C   0  0  0  0  0  0  0  0  0  0  0  0
   19.4071    3.1057   27.6377 C   0  0  0  0  0  0  0  0  0  0  0  0
   20.6790    3.0414   26.8622 C   0  0  0  0  0  0  0  0  0  0  0  0
   20.4207    3.0031   25.4553 O   0  0  0  0  0  0  0  0  0  0  0  0
   20.8558    1.8990   24.7793 C   0  0  0  0  0  0  0  0  0  0  0  0
   20.0521    1.4894   23.7163 C   0  0  0  0  0  0  0  0  0  0  0  0
   20.3874    0.3573   22.9689 C   0  0  0  0  0  0  0  0  0  0  0  0
   21.5451   -0.3745   23.2648 C   0  0  0  0  0  0  0  0  0  0  0  0
   21.8560   -1.6439   22.5020 C   0  0  0  0  0  0  0  0  0  0  0  0
   23.2665   -1.7242   21.9085 C   0  0  0  0  0  0  0  0  0  0  0  0
   23.5224   -0.6729   20.9432 N   0  0  0  0  0  0  0  0  0  0  0  0
   24.1788   -0.8969   19.7538 C   0  0  0  0  0  0  0  0  0  0  0  0
   24.4850   -2.0087   19.3394 O   0  0  0  0  0  0  0  0  0  0  0  0
   24.3750    0.3734   18.9584 C   0  0  0  0  0  0  0  0  0  0  0  0
   25.1016    0.1514   17.6318 C   0  0  0  0  0  0  0  0  0  0  0  0
   25.0352    1.3694   16.6977 C   0  0  2  0  0  0  0  0  0  0  0  0
   23.6731    1.6011   16.1985 N   0  0  0  0  0  0  0  0  0  0  0  0
   22.7424    2.3556   16.8546 C   0  0  0  0  0  0  0  0  0  0  0  0
   22.9903    2.9333   17.9113 O   0  0  0  0  0  0  0  0  0  0  0  0
   21.3877    2.5040   16.1898 C   0  0  0  0  0  0  0  0  0  0  0  0
   20.8692    1.3605   15.3134 C   0  0  0  0  0  0  0  0  0  0  0  0
   20.4709    0.0509   16.0196 C   0  0  2  0  0  0  0  0  0  0  0  0
   19.5673    0.2335   17.1557 N   0  0  0  0  0  0  0  0  0  0  0  0
   18.2486    0.5612   16.9648 C   0  0  0  0  0  0  0  0  0  0  0  0
   17.7985    0.9073   15.8736 O   0  0  0  0  0  0  0  0  0  0  0  0
   17.3627    0.4340   18.1909 C   0  0  0  0  0  0  0  0  0  0  0  0
   16.4799   -0.8117   18.0781 C   0  0  0  0  0  0  0  0  0  0  0  0
   15.3875   -0.9083   19.1562 C   0  0  2  0  0  0  0  0  0  0  0  0
   14.8333   -2.3217   19.1448 C   0  0  0  0  0  0  0  0  0  0  0  0
   14.2519   -2.8792   18.2319 O   0  0  0  0  0  0  0  0  0  0  0  0
   15.0908   -2.9841   20.2892 O   0  0  0  0  0  0  0  0  0  0  0  0
   14.2574    0.1515   19.0974 C   0  0  1  0  0  0  0  0  0  0  0  0
   13.3169    0.1579   17.8623 C   0  0  0  0  0  0  0  0  0  0  0  0
   13.5133    1.3523   16.9185 C   0  0  0  0  0  0  0  0  0  0  0  0
   14.6014    1.1078   15.9128 C   0  0  0  0  0  0  0  0  0  0  0  0
   14.6997    0.1390   15.1839 O   0  0  0  0  0  0  0  0  0  0  0  0
   15.5354    2.0763   15.9408 O   0  0  0  0  0  0  0  0  0  0  0  0
   13.4655    0.0302   20.3903 C   0  0  0  0  0  0  0  0  0  0  0  0
   13.7184    0.6194   21.4288 O   0  0  0  0  0  0  0  0  0  0  0  0
   12.4741   -0.8765   20.3471 O   0  0  0  0  0  0  0  0  0  0  0  0
   21.6806   -0.8160   16.3824 C   0  0  0  0  0  0  0  0  0  0  0  0
   22.5897   -1.1203   15.6260 O   0  0  0  0  0  0  0  0  0  0  0  0
   21.6572   -1.2692   17.6576 O   0  0  0  0  0  0  0  0  0  0  0  0
   25.9829    1.1501   15.5083 C   0  0  0  0  0  0  0  0  0  0  0  0
   27.1750    0.8938   15.5669 O   0  0  0  0  0  0  0  0  0  0  0  0
   25.3791    1.2780   14.3019 O   0  0  0  0  0  0  0  0  0  0  0  0
   22.3665    0.0668   24.3108 C   0  0  0  0  0  0  0  0  0  0  0  0
   22.0357    1.2087   25.0485 C   0  0  0  0  0  0  0  0  0  0  0  0
   18.7403    4.2353   28.0629 C   0  0  0  0  0  0  0  0  0  0  0  0
   17.6352    3.9046   28.7762 O   0  0  0  0  0  0  0  0  0  0  0  0
   13.1686    2.5485   28.9236 H   0  0  0  0  0  0  0  0  0  0  0  0
   15.2318    2.5959   27.9426 H   0  0  0  0  0  0  0  0  0  0  0  0
   16.5117    0.8569   29.5895 H   0  0  0  0  0  0  0  0  0  0  0  0
   16.4267    2.3127   30.5995 H   0  0  0  0  0  0  0  0  0  0  0  0
   18.8359    0.9542   27.9719 H   0  0  0  0  0  0  0  0  0  0  0  0
   21.2541    2.1859   27.2330 H   0  0  0  0  0  0  0  0  0  0  0  0
   21.2792    3.9378   27.0580 H   0  0  0  0  0  0  0  0  0  0  0  0
   19.1464    2.0438   23.4813 H   0  0  0  0  0  0  0  0  0  0  0  0
   19.7258    0.0472   22.1632 H   0  0  0  0  0  0  0  0  0  0  0  0
   21.1289   -1.7690   21.6891 H   0  0  0  0  0  0  0  0  0  0  0  0
   21.7058   -2.4888   23.1856 H   0  0  0  0  0  0  0  0  0  0  0  0
   23.3987   -2.7014   21.4316 H   0  0  0  0  0  0  0  0  0  0  0  0
   24.0345   -1.6349   22.6833 H   0  0  0  0  0  0  0  0  0  0  0  0
   23.3533    0.2854   21.2323 H   0  0  0  0  0  0  0  0  0  0  0  0
   24.9218    1.1020   19.5670 H   0  0  0  0  0  0  0  0  0  0  0  0
   23.3648    0.7488   18.7887 H   0  0  0  0  0  0  0  0  0  0  0  0
   24.6964   -0.7274   17.1164 H   0  0  0  0  0  0  0  0  0  0  0  0
   26.1490   -0.0961   17.8497 H   0  0  0  0  0  0  0  0  0  0  0  0
   25.3715    2.2761   17.2131 H   0  0  0  0  0  0  0  0  0  0  0  0
   23.5196    1.3038   15.2392 H   0  0  0  0  0  0  0  0  0  0  0  0
   20.6585    2.7122   16.9821 H   0  0  0  0  0  0  0  0  0  0  0  0
   21.4517    3.4113   15.5761 H   0  0  0  0  0  0  0  0  0  0  0  0
   21.5862    1.1427   14.5139 H   0  0  0  0  0  0  0  0  0  0  0  0
   19.9795    1.7477   14.7999 H   0  0  0  0  0  0  0  0  0  0  0  0
   19.9131   -0.5581   15.2945 H   0  0  0  0  0  0  0  0  0  0  0  0
   19.8525   -0.2156   18.0217 H   0  0  0  0  0  0  0  0  0  0  0  0
   16.7691    1.3504   18.2577 H   0  0  0  0  0  0  0  0  0  0  0  0
   17.9730    0.3849   19.0996 H   0  0  0  0  0  0  0  0  0  0  0  0
   17.1343   -1.6920   18.1534 H   0  0  0  0  0  0  0  0  0  0  0  0
   16.0323   -0.8878   17.0835 H   0  0  0  0  0  0  0  0  0  0  0  0
   15.8973   -0.7850   20.1242 H   0  0  0  0  0  0  0  0  0  0  0  0
   14.7046   -3.8727   20.1318 H   0  0  0  0  0  0  0  0  0  0  0  0
   14.7203    1.1441   19.1654 H   0  0  0  0  0  0  0  0  0  0  0  0
   12.2740    0.2282   18.1991 H   0  0  0  0  0  0  0  0  0  0  0  0
   13.3897   -0.7759   17.3010 H   0  0  0  0  0  0  0  0  0  0  0  0
   13.7113    2.2700   17.4823 H   0  0  0  0  0  0  0  0  0  0  0  0
   12.5973    1.5293   16.3423 H   0  0  0  0  0  0  0  0  0  0  0  0
   16.3114    1.6959   15.4522 H   0  0  0  0  0  0  0  0  0  0  0  0
   12.0798   -0.8639   21.2449 H   0  0  0  0  0  0  0  0  0  0  0  0
   22.4642   -1.8302   17.7485 H   0  0  0  0  0  0  0  0  0  0  0  0
   26.1054    1.1210   13.6606 H   0  0  0  0  0  0  0  0  0  0  0  0
   23.2717   -0.4763   24.5728 H   0  0  0  0  0  0  0  0  0  0  0  0
   22.7209    1.5372   25.8235 H   0  0  0  0  0  0  0  0  0  0  0  0
   18.9218    5.2959   27.9541 H   0  0  0  0  0  0  0  0  0  0  0  0
  1  2  2  0  0  0  0
  2  3  1  0  0  0  0
  2 56  1  0  0  0  0
  3  4  1  0  0  0  0
  3 57  1  0  0  0  0
  4  5  1  0  0  0  0
  4 58  1  0  0  0  0
  4 59  1  0  0  0  0
  5  6  2  0  0  0  0
  5 55  1  0  0  0  0
  6  7  1  0  0  0  0
  6 60  1  0  0  0  0
  7  8  1  0  0  0  0
  7 54  2  0  0  0  0
  8  9  1  0  0  0  0
  8 61  1  0  0  0  0
  8 62  1  0  0  0  0
  9 10  1  0  0  0  0
 10 11  1  0  0  0  0
 10 53  2  0  0  0  0
 11 12  2  0  0  0  0
 11 63  1  0  0  0  0
 12 13  1  0  0  0  0
 12 64  1  0  0  0  0
 13 14  1  0  0  0  0
 13 52  2  0  0  0  0
 14 15  1  0  0  0  0
 14 65  1  0  0  0  0
 14 66  1  0  0  0  0
 15 16  1  0  0  0  0
 15 67  1  0  0  0  0
 15 68  1  0  0  0  0
 16 17  1  0  0  0  0
 16 69  1  0  0  0  0
 17 18  2  0  0  0  0
 17 19  1  0  0  0  0
 19 20  1  0  0  0  0
 19 70  1  0  0  0  0
 19 71  1  0  0  0  0
 20 72  1  0  0  0  0
 20 73  1  0  0  0  0
 21 49  1  0  0  0  0
 21 22  1  0  0  0  0
 21 20  1  0  0  0  0
 21 74  1  1  0  0  0
 22 23  1  0  0  0  0
 22 75  1  0  0  0  0
 23 24  2  0  0  0  0
 23 25  1  0  0  0  0
 25 26  1  0  0  0  0
 25 76  1  0  0  0  0
 25 77  1  0  0  0  0
 26 78  1  0  0  0  0
 26 79  1  0  0  0  0
 27 46  1  0  0  0  0
 27 28  1  0  0  0  0
 27 26  1  0  0  0  0
 27 80  1  6  0  0  0
 28 29  1  0  0  0  0
 28 81  1  0  0  0  0
 29 30  2  0  0  0  0
 29 31  1  0  0  0  0
 31 32  1  0  0  0  0
 31 82  1  0  0  0  0
 31 83  1  0  0  0  0
 32 84  1  0  0  0  0
 32 85  1  0  0  0  0
 33 37  1  0  0  0  0
 33 34  1  0  0  0  0
 33 32  1  0  0  0  0
 33 86  1  1  0  0  0
 34 35  2  0  0  0  0
 34 36  1  0  0  0  0
 36 87  1  0  0  0  0
 37 38  1  0  0  0  0
 37 43  1  0  0  0  0
 37 88  1  1  0  0  0
 38 39  1  0  0  0  0
 38 89  1  0  0  0  0
 38 90  1  0  0  0  0
 39 40  1  0  0  0  0
 39 91  1  0  0  0  0
 39 92  1  0  0  0  0
 40 41  2  0  0  0  0
 40 42  1  0  0  0  0
 42 93  1  0  0  0  0
 43 44  2  0  0  0  0
 43 45  1  0  0  0  0
 45 94  1  0  0  0  0
 46 47  2  0  0  0  0
 46 48  1  0  0  0  0
 48 95  1  0  0  0  0
 49 50  2  0  0  0  0
 49 51  1  0  0  0  0
 51 96  1  0  0  0  0
 52 53  1  0  0  0  0
 52 97  1  0  0  0  0
 53 98  1  0  0  0  0
 54 55  1  0  0  0  0
 54 99  1  0  0  0  0
M  END
$$$$
