CHEBI:15793
 OpenBabel04242413163D

 18 18  0  0  0  0  0  0  0  0999 V2000
    1.8414   -1.4171   -0.2758 N   0  0  0  0  0  0  0  0  0  0  0  0
    0.5885   -0.7444   -0.2338 C   0  0  0  0  0  0  0  0  0  0  0  0
    0.5657    0.6422   -0.0152 C   0  0  0  0  0  0  0  0  0  0  0  0
    1.7367    1.3304    0.1566 O   0  0  0  0  0  0  0  0  0  0  0  0
   -0.6230    1.3614    0.0552 C   0  0  0  0  0  0  0  0  0  0  0  0
   -1.8371    0.6845   -0.0156 C   0  0  0  0  0  0  0  0  0  0  0  0
   -1.8485   -0.7070   -0.1203 C   0  0  0  0  0  0  0  0  0  0  0  0
   -0.6424   -1.4243   -0.1890 C   0  0  0  0  0  0  0  0  0  0  0  0
   -0.7412   -2.9047   -0.2201 C   0  0  0  0  0  0  0  0  0  0  0  0
   -1.6679   -3.5044   -0.7360 O   0  0  0  0  0  0  0  0  0  0  0  0
    0.2771   -3.5185    0.4239 O   0  0  0  0  0  0  0  0  0  0  0  0
    2.5443   -0.8195   -0.7181 H   0  0  0  0  0  0  0  0  0  0  0  0
    1.7834   -2.2713   -0.8422 H   0  0  0  0  0  0  0  0  0  0  0  0
    2.3517    0.7037    0.5789 H   0  0  0  0  0  0  0  0  0  0  0  0
   -0.6013    2.4398    0.1872 H   0  0  0  0  0  0  0  0  0  0  0  0
   -2.7731    1.2348    0.0435 H   0  0  0  0  0  0  0  0  0  0  0  0
   -2.8002   -1.2369   -0.1313 H   0  0  0  0  0  0  0  0  0  0  0  0
    0.8988   -2.8841    0.8458 H   0  0  0  0  0  0  0  0  0  0  0  0
  1  2  1  0  0  0  0
  1 12  1  0  0  0  0
  1 13  1  0  0  0  0
  2  3  1  0  0  0  0
  2  8  2  0  0  0  0
  3  4  1  0  0  0  0
  3  5  2  0  0  0  0
  4 14  1  0  0  0  0
  5  6  1  0  0  0  0
  5 15  1  0  0  0  0
  6  7  2  0  0  0  0
  6 16  1  0  0  0  0
  7  8  1  0  0  0  0
  7 17  1  0  0  0  0
  8  9  1  0  0  0  0
  9 10  2  0  0  0  0
  9 11  1  0  0  0  0
 11 18  1  0  0  0  0
M  END
$$$$
