CHEBI:17385
 OpenBabel04242416273D

 23 23  0  0  0  0  0  0  0  0999 V2000
    3.0797    0.3798   -2.4582 O   0  0  0  0  0  0  0  0  0  0  0  0
    3.5550   -0.2361   -1.5171 C   0  0  0  0  0  0  0  0  0  0  0  0
    3.1273   -0.0876   -0.2362 O   0  0  0  0  0  0  0  0  0  0  0  0
    4.6849   -1.2606   -1.6147 C   0  0  0  0  0  0  0  0  0  0  0  0
    4.8930   -1.7984   -0.2908 O   0  0  0  0  0  0  0  0  0  0  0  0
    4.2898   -2.3618   -2.5992 C   0  0  0  0  0  0  0  0  0  0  0  0
    5.3900   -3.3786   -2.8012 C   0  0  0  0  0  0  0  0  0  0  0  0
    5.3611   -4.6001   -2.1108 C   0  0  0  0  0  0  0  0  0  0  0  0
    6.3787   -5.5399   -2.2873 C   0  0  0  0  0  0  0  0  0  0  0  0
    7.4274   -5.2563   -3.1550 C   0  0  0  0  0  0  0  0  0  0  0  0
    8.4370   -6.1478   -3.3642 O   0  0  0  0  0  0  0  0  0  0  0  0
    7.4763   -4.0493   -3.8418 C   0  0  0  0  0  0  0  0  0  0  0  0
    6.4595   -3.1093   -3.6662 C   0  0  0  0  0  0  0  0  0  0  0  0
    3.6633   -0.7088    0.3163 H   0  0  0  0  0  0  0  0  0  0  0  0
    5.5982   -0.7310   -1.9059 H   0  0  0  0  0  0  0  0  0  0  0  0
    5.6833   -2.3708   -0.3578 H   0  0  0  0  0  0  0  0  0  0  0  0
    4.0258   -1.9310   -3.5737 H   0  0  0  0  0  0  0  0  0  0  0  0
    3.3876   -2.8766   -2.2435 H   0  0  0  0  0  0  0  0  0  0  0  0
    4.5399   -4.8304   -1.4345 H   0  0  0  0  0  0  0  0  0  0  0  0
    6.3334   -6.4803   -1.7472 H   0  0  0  0  0  0  0  0  0  0  0  0
    8.2391   -6.9632   -2.8751 H   0  0  0  0  0  0  0  0  0  0  0  0
    8.3007   -3.8448   -4.5197 H   0  0  0  0  0  0  0  0  0  0  0  0
    6.5051   -2.1733   -4.2193 H   0  0  0  0  0  0  0  0  0  0  0  0
  1  2  2  0  0  0  0
  2  3  1  0  0  0  0
  2  4  1  0  0  0  0
  3 14  1  0  0  0  0
  4  5  1  0  0  0  0
  4  6  1  0  0  0  0
  4 15  1  0  0  0  0
  5 16  1  0  0  0  0
  6  7  1  0  0  0  0
  6 17  1  0  0  0  0
  6 18  1  0  0  0  0
  7  8  1  0  0  0  0
  7 13  2  0  0  0  0
  8  9  2  0  0  0  0
  8 19  1  0  0  0  0
  9 10  1  0  0  0  0
  9 20  1  0  0  0  0
 10 11  1  0  0  0  0
 10 12  2  0  0  0  0
 11 21  1  0  0  0  0
 12 13  1  0  0  0  0
 12 22  1  0  0  0  0
 13 23  1  0  0  0  0
M  END
$$$$
