CHEBI:16199
 OpenBabel04242414003D

  8  7  0  0  0  0  0  0  0  0999 V2000
    1.1673    0.1229   -0.0389 N   0  0  0  0  0  0  0  0  0  0  0  0
    2.5117    0.0587   -0.0688 C   0  0  0  0  0  0  0  0  0  0  0  0
    3.1227    1.1463    0.4376 N   0  0  0  0  0  0  0  0  0  0  0  0
    3.1219   -0.8993   -0.5149 O   0  0  0  0  0  0  0  0  0  0  0  0
    0.6615    0.9110    0.3280 H   0  0  0  0  0  0  0  0  0  0  0  0
    0.6551   -0.6668   -0.4066 H   0  0  0  0  0  0  0  0  0  0  0  0
    2.6226    1.9375    0.8059 H   0  0  0  0  0  0  0  0  0  0  0  0
    4.1332    1.1536    0.4410 H   0  0  0  0  0  0  0  0  0  0  0  0
  1  2  1  0  0  0  0
  1  5  1  0  0  0  0
  1  6  1  0  0  0  0
  2  3  1  0  0  0  0
  2  4  2  0  0  0  0
  3  7  1  0  0  0  0
  3  8  1  0  0  0  0
M  END
$$$$
