CHEBI:16833
 OpenBabel04242415213D

 98 97  0  0  0  0  0  0  0  0999 V2000
   29.6358   15.4334   -6.7834 C   0  0  0  0  0  0  0  0  0  0  0  0
   29.1925   14.6802   -8.0098 C   0  0  0  0  0  0  0  0  0  0  0  0
   29.9575   13.4151   -8.2792 C   0  0  0  0  0  0  0  0  0  0  0  0
   28.1847   15.1459   -8.7725 C   0  0  0  0  0  0  0  0  0  0  0  0
   27.5290   14.4595   -9.9423 C   0  0  0  0  0  0  0  0  0  0  0  0
   26.0018   14.6651  -10.0043 C   0  0  0  0  0  0  0  0  0  0  0  0
   25.1998   13.9672   -8.9193 C   0  0  0  0  0  0  0  0  0  0  0  0
   25.2361   14.5880   -7.5444 C   0  0  0  0  0  0  0  0  0  0  0  0
   24.4825   12.8580   -9.1951 C   0  0  0  0  0  0  0  0  0  0  0  0
   23.6609   12.1621   -8.2293 C   0  0  0  0  0  0  0  0  0  0  0  0
   23.2111   10.9066   -8.3795 C   0  0  0  0  0  0  0  0  0  0  0  0
   22.4203   10.1975   -7.3733 C   0  0  0  0  0  0  0  0  0  0  0  0
   21.4520    9.1927   -7.9434 C   0  0  0  0  0  0  0  0  0  0  0  0
   22.6335   10.3948   -6.0573 C   0  0  0  0  0  0  0  0  0  0  0  0
   21.9465    9.7837   -4.9446 C   0  0  0  0  0  0  0  0  0  0  0  0
   20.6266    9.8861   -4.7294 C   0  0  0  0  0  0  0  0  0  0  0  0
   19.8980    9.3155   -3.5978 C   0  0  0  0  0  0  0  0  0  0  0  0
   20.7127    8.7132   -2.4766 C   0  0  0  0  0  0  0  0  0  0  0  0
   18.5498    9.3535   -3.6172 C   0  0  0  0  0  0  0  0  0  0  0  0
   17.6320    8.7585   -2.6661 C   0  0  0  0  0  0  0  0  0  0  0  0
   17.7418    7.4868   -2.2608 C   0  0  0  0  0  0  0  0  0  0  0  0
   16.8023    6.8146   -1.3941 C   0  0  0  0  0  0  0  0  0  0  0  0
   16.7963    5.4928   -1.1212 C   0  0  0  0  0  0  0  0  0  0  0  0
   17.7743    4.4897   -1.6848 C   0  0  0  0  0  0  0  0  0  0  0  0
   15.7614    4.9688   -0.2334 C   0  0  0  0  0  0  0  0  0  0  0  0
   15.5737    3.6799    0.0925 C   0  0  0  0  0  0  0  0  0  0  0  0
   14.5532    3.2744    1.0248 C   0  0  0  0  0  0  0  0  0  0  0  0
   13.2269    3.4652    0.8951 C   0  0  0  0  0  0  0  0  0  0  0  0
   12.5597    3.9438   -0.3668 C   0  0  0  0  0  0  0  0  0  0  0  0
   12.3046    3.1674    2.0598 C   0  0  0  0  0  0  0  0  0  0  0  0
   12.3902    4.1872    3.2141 C   0  0  0  0  0  0  0  0  0  0  0  0
   13.7158    4.3177    3.9249 C   0  0  0  0  0  0  0  0  0  0  0  0
   14.3668    3.3841    4.6488 C   0  0  0  0  0  0  0  0  0  0  0  0
   13.8679    1.9852    4.8833 C   0  0  0  0  0  0  0  0  0  0  0  0
   15.7117    3.6911    5.2881 C   0  0  0  0  0  0  0  0  0  0  0  0
   15.6707    4.7266    6.4227 C   0  0  0  0  0  0  0  0  0  0  0  0
   14.6124    4.4476    7.4558 C   0  0  0  0  0  0  0  0  0  0  0  0
   14.7283    3.7235    8.5847 C   0  0  0  0  0  0  0  0  0  0  0  0
   15.9798    3.0241    9.0337 C   0  0  0  0  0  0  0  0  0  0  0  0
   13.5423    3.5345    9.4930 C   0  0  0  0  0  0  0  0  0  0  0  0
   30.6544   15.8117   -6.9111 H   0  0  0  0  0  0  0  0  0  0  0  0
   29.6145   14.7726   -5.9099 H   0  0  0  0  0  0  0  0  0  0  0  0
   28.9828   16.2845   -6.5616 H   0  0  0  0  0  0  0  0  0  0  0  0
   29.7908   13.0232   -9.2861 H   0  0  0  0  0  0  0  0  0  0  0  0
   29.6844   12.6418   -7.5551 H   0  0  0  0  0  0  0  0  0  0  0  0
   31.0336   13.6040   -8.1937 H   0  0  0  0  0  0  0  0  0  0  0  0
   27.7567   16.1147   -8.5168 H   0  0  0  0  0  0  0  0  0  0  0  0
   27.7383   13.3845   -9.9467 H   0  0  0  0  0  0  0  0  0  0  0  0
   27.9630   14.8788  -10.8583 H   0  0  0  0  0  0  0  0  0  0  0  0
   25.6638   14.3108  -10.9877 H   0  0  0  0  0  0  0  0  0  0  0  0
   25.7639   15.7368   -9.9874 H   0  0  0  0  0  0  0  0  0  0  0  0
   25.7726   15.5393   -7.5336 H   0  0  0  0  0  0  0  0  0  0  0  0
   25.7331   13.9155   -6.8362 H   0  0  0  0  0  0  0  0  0  0  0  0
   24.2267   14.8094   -7.1834 H   0  0  0  0  0  0  0  0  0  0  0  0
   24.5109   12.4344  -10.1977 H   0  0  0  0  0  0  0  0  0  0  0  0
   23.4093   12.7070   -7.3234 H   0  0  0  0  0  0  0  0  0  0  0  0
   23.4452   10.3510   -9.2854 H   0  0  0  0  0  0  0  0  0  0  0  0
   20.6466    9.7008   -8.4837 H   0  0  0  0  0  0  0  0  0  0  0  0
   20.9943    8.5568   -7.1804 H   0  0  0  0  0  0  0  0  0  0  0  0
   21.9638    8.5183   -8.6398 H   0  0  0  0  0  0  0  0  0  0  0  0
   23.4289   11.0655   -5.7327 H   0  0  0  0  0  0  0  0  0  0  0  0
   22.6011    9.2788   -4.2393 H   0  0  0  0  0  0  0  0  0  0  0  0
   20.0267   10.4252   -5.4634 H   0  0  0  0  0  0  0  0  0  0  0  0
   21.1342    7.7505   -2.7866 H   0  0  0  0  0  0  0  0  0  0  0  0
   20.1324    8.5515   -1.5639 H   0  0  0  0  0  0  0  0  0  0  0  0
   21.5330    9.3780   -2.1843 H   0  0  0  0  0  0  0  0  0  0  0  0
   18.0368    9.8519   -4.4402 H   0  0  0  0  0  0  0  0  0  0  0  0
   16.7723    9.3638   -2.3870 H   0  0  0  0  0  0  0  0  0  0  0  0
   18.5911    6.9118   -2.6139 H   0  0  0  0  0  0  0  0  0  0  0  0
   16.0404    7.4570   -0.9510 H   0  0  0  0  0  0  0  0  0  0  0  0
   18.5164    4.9173   -2.3601 H   0  0  0  0  0  0  0  0  0  0  0  0
   17.2438    3.7235   -2.2605 H   0  0  0  0  0  0  0  0  0  0  0  0
   18.3312    4.0047   -0.8755 H   0  0  0  0  0  0  0  0  0  0  0  0
   15.0883    5.7081    0.2038 H   0  0  0  0  0  0  0  0  0  0  0  0
   16.2235    2.8867   -0.2628 H   0  0  0  0  0  0  0  0  0  0  0  0
   14.9508    2.8242    1.9324 H   0  0  0  0  0  0  0  0  0  0  0  0
   13.2217    3.8993   -1.2375 H   0  0  0  0  0  0  0  0  0  0  0  0
   12.2056    4.9716   -0.2510 H   0  0  0  0  0  0  0  0  0  0  0  0
   11.7028    3.3033   -0.6047 H   0  0  0  0  0  0  0  0  0  0  0  0
   12.4914    2.1490    2.4160 H   0  0  0  0  0  0  0  0  0  0  0  0
   11.2658    3.1600    1.7042 H   0  0  0  0  0  0  0  0  0  0  0  0
   11.6174    3.9576    3.9578 H   0  0  0  0  0  0  0  0  0  0  0  0
   12.1306    5.1793    2.8194 H   0  0  0  0  0  0  0  0  0  0  0  0
   14.1830    5.2969    3.8151 H   0  0  0  0  0  0  0  0  0  0  0  0
   12.8263    1.8476    4.5857 H   0  0  0  0  0  0  0  0  0  0  0  0
   13.9286    1.7281    5.9455 H   0  0  0  0  0  0  0  0  0  0  0  0
   14.4826    1.2734    4.3214 H   0  0  0  0  0  0  0  0  0  0  0  0
   16.4059    4.0394    4.5117 H   0  0  0  0  0  0  0  0  0  0  0  0
   16.1542    2.7628    5.6737 H   0  0  0  0  0  0  0  0  0  0  0  0
   15.4802    5.7231    6.0036 H   0  0  0  0  0  0  0  0  0  0  0  0
   16.6618    4.7965    6.8852 H   0  0  0  0  0  0  0  0  0  0  0  0
   13.6434    4.8875    7.2179 H   0  0  0  0  0  0  0  0  0  0  0  0
   16.8188    3.1562    8.3463 H   0  0  0  0  0  0  0  0  0  0  0  0
   15.7969    1.9477    9.1197 H   0  0  0  0  0  0  0  0  0  0  0  0
   16.2907    3.4008   10.0135 H   0  0  0  0  0  0  0  0  0  0  0  0
   12.6490    4.0483    9.1218 H   0  0  0  0  0  0  0  0  0  0  0  0
   13.7616    3.9276   10.4907 H   0  0  0  0  0  0  0  0  0  0  0  0
   13.2987    2.4706    9.5810 H   0  0  0  0  0  0  0  0  0  0  0  0
  1  2  1  0  0  0  0
  1 41  1  0  0  0  0
  1 42  1  0  0  0  0
  1 43  1  0  0  0  0
  2  3  1  0  0  0  0
  2  4  2  0  0  0  0
  3 44  1  0  0  0  0
  3 45  1  0  0  0  0
  3 46  1  0  0  0  0
  4  5  1  0  0  0  0
  4 47  1  0  0  0  0
  5  6  1  0  0  0  0
  5 48  1  0  0  0  0
  5 49  1  0  0  0  0
  6  7  1  0  0  0  0
  6 50  1  0  0  0  0
  6 51  1  0  0  0  0
  7  8  1  0  0  0  0
  7  9  2  0  0  0  0
  8 52  1  0  0  0  0
  8 53  1  0  0  0  0
  8 54  1  0  0  0  0
  9 10  1  0  0  0  0
  9 55  1  0  0  0  0
 10 11  2  0  0  0  0
 10 56  1  0  0  0  0
 11 12  1  0  0  0  0
 11 57  1  0  0  0  0
 12 13  1  0  0  0  0
 12 14  2  0  0  0  0
 13 58  1  0  0  0  0
 13 59  1  0  0  0  0
 13 60  1  0  0  0  0
 14 15  1  0  0  0  0
 14 61  1  0  0  0  0
 15 16  2  0  0  0  0
 15 62  1  0  0  0  0
 16 17  1  0  0  0  0
 16 63  1  0  0  0  0
 17 18  1  0  0  0  0
 17 19  2  0  0  0  0
 18 64  1  0  0  0  0
 18 65  1  0  0  0  0
 18 66  1  0  0  0  0
 19 20  1  0  0  0  0
 19 67  1  0  0  0  0
 20 21  2  0  0  0  0
 20 68  1  0  0  0  0
 21 22  1  0  0  0  0
 21 69  1  0  0  0  0
 22 23  2  0  0  0  0
 22 70  1  0  0  0  0
 23 24  1  0  0  0  0
 23 25  1  0  0  0  0
 24 71  1  0  0  0  0
 24 72  1  0  0  0  0
 24 73  1  0  0  0  0
 25 26  2  0  0  0  0
 25 74  1  0  0  0  0
 26 27  1  0  0  0  0
 26 75  1  0  0  0  0
 27 28  2  0  0  0  0
 27 76  1  0  0  0  0
 28 29  1  0  0  0  0
 28 30  1  0  0  0  0
 29 77  1  0  0  0  0
 29 78  1  0  0  0  0
 29 79  1  0  0  0  0
 30 31  1  0  0  0  0
 30 80  1  0  0  0  0
 30 81  1  0  0  0  0
 31 32  1  0  0  0  0
 31 82  1  0  0  0  0
 31 83  1  0  0  0  0
 32 33  2  0  0  0  0
 32 84  1  0  0  0  0
 33 34  1  0  0  0  0
 33 35  1  0  0  0  0
 34 85  1  0  0  0  0
 34 86  1  0  0  0  0
 34 87  1  0  0  0  0
 35 36  1  0  0  0  0
 35 88  1  0  0  0  0
 35 89  1  0  0  0  0
 36 37  1  0  0  0  0
 36 90  1  0  0  0  0
 36 91  1  0  0  0  0
 37 38  2  0  0  0  0
 37 92  1  0  0  0  0
 38 39  1  0  0  0  0
 38 40  1  0  0  0  0
 39 93  1  0  0  0  0
 39 94  1  0  0  0  0
 39 95  1  0  0  0  0
 40 96  1  0  0  0  0
 40 97  1  0  0  0  0
 40 98  1  0  0  0  0
M  END
$$$$
