CHEBI:16022
 OpenBabel04242413383D

 59 60  0  0  1  0  0  0  0  0999 V2000
    5.3925   -0.7801   -8.9483 N   0  0  0  0  0  0  0  0  0  0  0  0
    6.4206   -0.4892   -8.0961 C   0  0  0  0  0  0  0  0  0  0  0  0
    7.4606   -1.4987   -7.8322 C   0  0  0  0  0  0  0  0  0  0  0  0
    8.3778   -1.1628   -6.9270 C   0  0  0  0  0  0  0  0  0  0  0  0
    8.3564    0.0682   -6.3009 N   0  0  0  0  0  0  0  0  0  0  0  0
    9.4289    0.4563   -5.3724 C   0  0  2  0  0  0  0  0  0  0  0  0
   10.1485   -0.7205   -4.9370 O   0  0  0  0  0  0  0  0  0  0  0  0
   10.2853   -0.6905   -3.4959 C   0  0  2  0  0  0  0  0  0  0  0  0
    9.2976   -1.6855   -2.8751 C   0  0  0  0  0  0  0  0  0  0  0  0
    9.7048   -3.0128   -3.1816 O   0  0  0  0  0  0  0  0  0  0  0  0
    9.1514   -4.1830   -2.2327 P   0  0  0  0  0  0  0  0  0  0  0  0
    9.3583   -3.9594   -0.7747 O   0  0  0  0  0  0  0  0  0  0  0  0
    7.6109   -4.2915   -2.6543 O   0  0  0  0  0  0  0  0  0  0  0  0
    9.8031   -5.4960   -2.8426 O   0  0  0  0  0  0  0  0  0  0  0  0
    9.6921   -6.8861   -2.0905 P   0  0  0  0  0  0  0  0  0  0  0  0
    8.3510   -7.2031   -1.5147 O   0  0  0  0  0  0  0  0  0  0  0  0
   10.1573   -7.9087   -3.2344 O   0  0  0  0  0  0  0  0  0  0  0  0
   10.9510   -6.9536   -1.0993 O   0  0  0  0  0  0  0  0  0  0  0  0
   10.7041   -6.8070    0.3056 C   0  0  0  0  0  0  0  0  0  0  0  0
   10.7340   -8.2097    0.9231 C   0  0  1  0  0  0  0  0  0  0  0  0
   12.0292   -8.7873    0.6248 O   0  0  0  0  0  0  0  0  0  0  0  0
   10.5699   -8.2769    2.4519 C   0  0  1  0  0  0  0  0  0  0  0  0
   11.6161   -7.5068    3.0696 O   0  0  0  0  0  0  0  0  0  0  0  0
    9.2017   -7.8511    3.0108 C   0  0  1  0  0  0  0  0  0  0  0  0
    8.8594   -6.5155    2.6227 O   0  0  0  0  0  0  0  0  0  0  0  0
    8.0703   -8.7791    2.5567 C   0  0  0  0  0  0  0  0  0  0  0  0
    6.8584   -8.3620    3.1910 O   0  0  0  0  0  0  0  0  0  0  0  0
    9.9909    0.7400   -3.0757 C   0  0  1  0  0  0  0  0  0  0  0  0
   11.1642    1.5520   -3.2273 O   0  0  0  0  0  0  0  0  0  0  0  0
    8.9488    1.1710   -4.0883 C   0  0  1  0  0  0  0  0  0  0  0  0
    8.9326    2.5986   -4.1629 O   0  0  0  0  0  0  0  0  0  0  0  0
    7.4324    1.0431   -6.6947 C   0  0  0  0  0  0  0  0  0  0  0  0
    7.5018    2.1916   -6.2615 O   0  0  0  0  0  0  0  0  0  0  0  0
    6.4273    0.6901   -7.5613 N   0  0  0  0  0  0  0  0  0  0  0  0
    5.5927   -1.3968   -9.7255 H   0  0  0  0  0  0  0  0  0  0  0  0
    4.8678    0.0473   -9.2164 H   0  0  0  0  0  0  0  0  0  0  0  0
    7.4452   -2.4510   -8.3408 H   0  0  0  0  0  0  0  0  0  0  0  0
    9.1744   -1.8550   -6.6700 H   0  0  0  0  0  0  0  0  0  0  0  0
   10.1245    1.0934   -5.9330 H   0  0  0  0  0  0  0  0  0  0  0  0
   11.3149   -0.9871   -3.2679 H   0  0  0  0  0  0  0  0  0  0  0  0
    8.2875   -1.5503   -3.2744 H   0  0  0  0  0  0  0  0  0  0  0  0
    9.2730   -1.5521   -1.7885 H   0  0  0  0  0  0  0  0  0  0  0  0
    7.1123   -4.8834   -2.0553 H   0  0  0  0  0  0  0  0  0  0  0  0
   11.0079   -7.6498   -3.6310 H   0  0  0  0  0  0  0  0  0  0  0  0
    9.7548   -6.2956    0.4625 H   0  0  0  0  0  0  0  0  0  0  0  0
   11.5112   -6.1832    0.7014 H   0  0  0  0  0  0  0  0  0  0  0  0
   10.0003   -8.8537    0.4275 H   0  0  0  0  0  0  0  0  0  0  0  0
   12.2108   -8.5653   -0.3088 H   0  0  0  0  0  0  0  0  0  0  0  0
   10.7573   -9.3106    2.7704 H   0  0  0  0  0  0  0  0  0  0  0  0
   12.4389   -7.7891    2.6243 H   0  0  0  0  0  0  0  0  0  0  0  0
    9.2505   -7.8365    4.1065 H   0  0  0  0  0  0  0  0  0  0  0  0
    7.9685   -6.3669    2.9978 H   0  0  0  0  0  0  0  0  0  0  0  0
    8.2715   -9.8181    2.8338 H   0  0  0  0  0  0  0  0  0  0  0  0
    7.9088   -8.7079    1.4768 H   0  0  0  0  0  0  0  0  0  0  0  0
    6.1517   -8.9432    2.8576 H   0  0  0  0  0  0  0  0  0  0  0  0
    9.6584    0.8453   -2.0390 H   0  0  0  0  0  0  0  0  0  0  0  0
   10.8244    2.4626   -3.3620 H   0  0  0  0  0  0  0  0  0  0  0  0
    7.9551    0.8192   -3.7868 H   0  0  0  0  0  0  0  0  0  0  0  0
    8.3249    2.8194   -4.9075 H   0  0  0  0  0  0  0  0  0  0  0  0
  1  2  1  0  0  0  0
  1 35  1  0  0  0  0
  1 36  1  0  0  0  0
  2  3  1  0  0  0  0
  2 34  2  0  0  0  0
  3  4  2  0  0  0  0
  3 37  1  0  0  0  0
  4  5  1  0  0  0  0
  4 38  1  0  0  0  0
  5  6  1  0  0  0  0
  5 32  1  0  0  0  0
  6  7  1  0  0  0  0
  6 30  1  0  0  0  0
  6 39  1  6  0  0  0
  7  8  1  0  0  0  0
  8  9  1  0  0  0  0
  8 28  1  0  0  0  0
  8 40  1  1  0  0  0
  9 10  1  0  0  0  0
  9 41  1  0  0  0  0
  9 42  1  0  0  0  0
 10 11  1  0  0  0  0
 11 12  2  0  0  0  0
 11 13  1  0  0  0  0
 11 14  1  0  0  0  0
 13 43  1  0  0  0  0
 14 15  1  0  0  0  0
 15 16  2  0  0  0  0
 15 17  1  0  0  0  0
 15 18  1  0  0  0  0
 17 44  1  0  0  0  0
 18 19  1  0  0  0  0
 19 20  1  0  0  0  0
 19 45  1  0  0  0  0
 19 46  1  0  0  0  0
 20 21  1  0  0  0  0
 20 22  1  0  0  0  0
 20 47  1  6  0  0  0
 21 48  1  0  0  0  0
 22 23  1  0  0  0  0
 22 24  1  0  0  0  0
 22 49  1  1  0  0  0
 23 50  1  0  0  0  0
 24 25  1  0  0  0  0
 24 26  1  0  0  0  0
 24 51  1  1  0  0  0
 25 52  1  0  0  0  0
 26 27  1  0  0  0  0
 26 53  1  0  0  0  0
 26 54  1  0  0  0  0
 27 55  1  0  0  0  0
 28 29  1  0  0  0  0
 28 30  1  0  0  0  0
 28 56  1  1  0  0  0
 29 57  1  0  0  0  0
 30 31  1  0  0  0  0
 30 58  1  1  0  0  0
 31 59  1  0  0  0  0
 32 33  2  0  0  0  0
 32 34  1  0  0  0  0
M  END
$$$$
