CHEBI:17445
 OpenBabel04242416353D

 19 19  0  0  0  0  0  0  0  0999 V2000
    2.7480    0.9194    2.2777 O   0  0  0  0  0  0  0  0  0  0  0  0
    3.9151    1.1738    2.0090 C   0  0  0  0  0  0  0  0  0  0  0  0
    4.7994    1.5299    2.9684 O   0  0  0  0  0  0  0  0  0  0  0  0
    4.4446    1.1969    0.5902 C   0  0  0  0  0  0  0  0  0  0  0  0
    5.8951    0.8018    0.4433 C   0  0  0  0  0  0  0  0  0  0  0  0
    6.2981   -0.5212    0.6782 C   0  0  0  0  0  0  0  0  0  0  0  0
    7.6431   -0.8806    0.5683 C   0  0  0  0  0  0  0  0  0  0  0  0
    8.5987    0.0748    0.2229 C   0  0  0  0  0  0  0  0  0  0  0  0
    8.1980    1.3852   -0.0127 C   0  0  0  0  0  0  0  0  0  0  0  0
    9.0955    2.3541   -0.3496 O   0  0  0  0  0  0  0  0  0  0  0  0
    6.8608    1.7552    0.0930 C   0  0  0  0  0  0  0  0  0  0  0  0
    5.7001    1.7117    2.6350 H   0  0  0  0  0  0  0  0  0  0  0  0
    4.2774    2.2048    0.1924 H   0  0  0  0  0  0  0  0  0  0  0  0
    3.8410    0.5067   -0.0123 H   0  0  0  0  0  0  0  0  0  0  0  0
    5.5672   -1.2822    0.9490 H   0  0  0  0  0  0  0  0  0  0  0  0
    7.9449   -1.9093    0.7520 H   0  0  0  0  0  0  0  0  0  0  0  0
    9.6403   -0.2201    0.1421 H   0  0  0  0  0  0  0  0  0  0  0  0
    9.9754    1.9498   -0.4313 H   0  0  0  0  0  0  0  0  0  0  0  0
    6.5832    2.7884   -0.1046 H   0  0  0  0  0  0  0  0  0  0  0  0
  1  2  2  0  0  0  0
  2  3  1  0  0  0  0
  2  4  1  0  0  0  0
  3 12  1  0  0  0  0
  4  5  1  0  0  0  0
  4 13  1  0  0  0  0
  4 14  1  0  0  0  0
  5  6  1  0  0  0  0
  5 11  2  0  0  0  0
  6  7  2  0  0  0  0
  6 15  1  0  0  0  0
  7  8  1  0  0  0  0
  7 16  1  0  0  0  0
  8  9  2  0  0  0  0
  8 17  1  0  0  0  0
  9 10  1  0  0  0  0
  9 11  1  0  0  0  0
 10 18  1  0  0  0  0
 11 19  1  0  0  0  0
M  END
$$$$
