CHEBI:17189
 OpenBabel04242415593D

 17 17  0  0  0  0  0  0  0  0999 V2000
    2.0634    1.2361    1.1368 O   0  0  0  0  0  0  0  0  0  0  0  0
    2.0937    0.5116    0.1568 C   0  0  0  0  0  0  0  0  0  0  0  0
    1.3722   -0.6214    0.0297 O   0  0  0  0  0  0  0  0  0  0  0  0
    2.8011    0.8765   -1.0862 C   0  0  0  0  0  0  0  0  0  0  0  0
    2.5746    2.1559   -1.6043 C   0  0  0  0  0  0  0  0  0  0  0  0
    3.2096    2.5282   -2.7826 C   0  0  0  0  0  0  0  0  0  0  0  0
    2.9936    3.7482   -3.3494 O   0  0  0  0  0  0  0  0  0  0  0  0
    4.0839    1.6594   -3.4302 C   0  0  0  0  0  0  0  0  0  0  0  0
    4.3258    0.3892   -2.9029 C   0  0  0  0  0  0  0  0  0  0  0  0
    3.6741   -0.0035   -1.7348 C   0  0  0  0  0  0  0  0  0  0  0  0
    3.8727   -1.2582   -1.2340 O   0  0  0  0  0  0  0  0  0  0  0  0
    1.5746   -1.1062   -0.7956 H   0  0  0  0  0  0  0  0  0  0  0  0
    1.8985    2.8313   -1.0871 H   0  0  0  0  0  0  0  0  0  0  0  0
    2.3671    4.2478   -2.7982 H   0  0  0  0  0  0  0  0  0  0  0  0
    4.5732    1.9729   -4.3493 H   0  0  0  0  0  0  0  0  0  0  0  0
    5.0079   -0.2769   -3.4234 H   0  0  0  0  0  0  0  0  0  0  0  0
    4.6934   -1.6227   -1.6134 H   0  0  0  0  0  0  0  0  0  0  0  0
  1  2  2  0  0  0  0
  2  3  1  0  0  0  0
  2  4  1  0  0  0  0
  3 12  1  0  0  0  0
  4  5  1  0  0  0  0
  4 10  2  0  0  0  0
  5  6  2  0  0  0  0
  5 13  1  0  0  0  0
  6  7  1  0  0  0  0
  6  8  1  0  0  0  0
  7 14  1  0  0  0  0
  8  9  2  0  0  0  0
  8 15  1  0  0  0  0
  9 10  1  0  0  0  0
  9 16  1  0  0  0  0
 10 11  1  0  0  0  0
 11 17  1  0  0  0  0
M  END
$$$$
