CHEBI:15648
 OpenBabel04242413003D

 31 34  0  0  1  0  0  0  0  0999 V2000
    1.0427    0.1561   -0.0778 O   0  0  0  0  0  0  0  0  0  0  0  0
    2.4067    0.1003   -0.0896 C   0  0  0  0  0  0  0  0  0  0  0  0
    3.0777   -1.1121   -0.3081 C   0  0  0  0  0  0  0  0  0  0  0  0
    4.4757   -1.1499   -0.3085 C   0  0  0  0  0  0  0  0  0  0  0  0
    5.1602    0.0353   -0.0993 C   0  0  0  0  0  0  0  0  0  0  0  0
    4.4785    1.2273    0.1055 C   0  0  0  0  0  0  0  0  0  0  0  0
    3.1017    1.2866    0.1251 C   0  0  0  0  0  0  0  0  0  0  0  0
    5.3027    2.3042    0.3124 O   0  0  0  0  0  0  0  0  0  0  0  0
    6.6121    1.8221   -0.0965 C   0  0  1  0  0  0  0  0  0  0  0  0
    7.6915    2.4781    0.7225 C   0  0  0  0  0  0  0  0  0  0  0  0
    7.8302    3.8749    0.7285 C   0  0  0  0  0  0  0  0  0  0  0  0
    8.8711    4.4813    1.4350 C   0  0  0  0  0  0  0  0  0  0  0  0
    9.7801    3.6879    2.1280 C   0  0  0  0  0  0  0  0  0  0  0  0
   10.8166    4.2393    2.8222 O   0  0  0  0  0  0  0  0  0  0  0  0
    9.6577    2.3038    2.1354 C   0  0  0  0  0  0  0  0  0  0  0  0
    8.6035    1.7036    1.4495 C   0  0  0  0  0  0  0  0  0  0  0  0
    8.5365    0.3354    1.5029 O   0  0  0  0  0  0  0  0  0  0  0  0
    7.1997   -0.1485    1.3422 C   0  0  0  0  0  0  0  0  0  0  0  0
    6.6189    0.2881    0.0061 C   0  0  1  0  0  0  0  0  0  0  0  0
    0.6920   -0.7364   -0.2303 H   0  0  0  0  0  0  0  0  0  0  0  0
    2.5247   -2.0325   -0.4717 H   0  0  0  0  0  0  0  0  0  0  0  0
    5.0027   -2.0862   -0.4630 H   0  0  0  0  0  0  0  0  0  0  0  0
    2.5808    2.2205    0.2985 H   0  0  0  0  0  0  0  0  0  0  0  0
    6.7465    2.1176   -1.1479 H   0  0  0  0  0  0  0  0  0  0  0  0
    7.1248    4.4939    0.1770 H   0  0  0  0  0  0  0  0  0  0  0  0
    8.9585    5.5632    1.4266 H   0  0  0  0  0  0  0  0  0  0  0  0
   10.7634    5.2058    2.7442 H   0  0  0  0  0  0  0  0  0  0  0  0
   10.3714    1.6961    2.6831 H   0  0  0  0  0  0  0  0  0  0  0  0
    6.5915    0.1754    2.1988 H   0  0  0  0  0  0  0  0  0  0  0  0
    7.2405   -1.2429    1.3912 H   0  0  0  0  0  0  0  0  0  0  0  0
    7.1914   -0.1384   -0.8256 H   0  0  0  0  0  0  0  0  0  0  0  0
  1  2  1  0  0  0  0
  1 20  1  0  0  0  0
  2  3  1  0  0  0  0
  2  7  2  0  0  0  0
  3  4  2  0  0  0  0
  3 21  1  0  0  0  0
  4  5  1  0  0  0  0
  4 22  1  0  0  0  0
  5  6  2  0  0  0  0
  5 19  1  0  0  0  0
  6  7  1  0  0  0  0
  6  8  1  0  0  0  0
  7 23  1  0  0  0  0
  8  9  1  0  0  0  0
  9 10  1  0  0  0  0
  9 19  1  0  0  0  0
  9 24  1  6  0  0  0
 10 11  1  0  0  0  0
 10 16  2  0  0  0  0
 11 12  2  0  0  0  0
 11 25  1  0  0  0  0
 12 13  1  0  0  0  0
 12 26  1  0  0  0  0
 13 14  1  0  0  0  0
 13 15  2  0  0  0  0
 14 27  1  0  0  0  0
 15 16  1  0  0  0  0
 15 28  1  0  0  0  0
 16 17  1  0  0  0  0
 17 18  1  0  0  0  0
 18 19  1  0  0  0  0
 18 29  1  0  0  0  0
 18 30  1  0  0  0  0
 19 31  1  6  0  0  0
M  END
$$$$
