CHEBI:15412
 OpenBabel04242411503D

 15 14  0  0  1  0  0  0  0  0999 V2000
    6.2099   -2.2645   -1.8317 N   0  0  0  0  0  0  0  0  0  0  0  0
    5.4811   -1.1670   -2.1206 C   0  0  0  0  0  0  0  0  0  0  0  0
    4.7792   -1.0753   -3.1188 O   0  0  0  0  0  0  0  0  0  0  0  0
    5.6415   -0.1603   -1.2336 N   0  0  0  0  0  0  0  0  0  0  0  0
    4.7571    0.9729   -1.2355 C   0  0  1  0  0  0  0  0  0  0  0  0
    4.9889    1.5924    0.0173 O   0  0  0  0  0  0  0  0  0  0  0  0
    4.9251    1.9804   -2.4107 C   0  0  0  0  0  0  0  0  0  0  0  0
    4.8825    3.1947   -2.2290 O   0  0  0  0  0  0  0  0  0  0  0  0
    4.9952    1.4469   -3.6498 O   0  0  0  0  0  0  0  0  0  0  0  0
    6.2070   -2.9791   -2.5499 H   0  0  0  0  0  0  0  0  0  0  0  0
    7.0971   -2.1333   -1.3655 H   0  0  0  0  0  0  0  0  0  0  0  0
    5.9060   -0.4395   -0.3018 H   0  0  0  0  0  0  0  0  0  0  0  0
    3.7195    0.6207   -1.2536 H   0  0  0  0  0  0  0  0  0  0  0  0
    4.7795    2.5387   -0.1207 H   0  0  0  0  0  0  0  0  0  0  0  0
    4.8957    0.4626   -3.6547 H   0  0  0  0  0  0  0  0  0  0  0  0
  1  2  1  0  0  0  0
  1 10  1  0  0  0  0
  1 11  1  0  0  0  0
  2  3  2  0  0  0  0
  2  4  1  0  0  0  0
  4  5  1  0  0  0  0
  4 12  1  0  0  0  0
  5  6  1  0  0  0  0
  5  7  1  0  0  0  0
  5 13  1  6  0  0  0
  6 14  1  0  0  0  0
  7  8  2  0  0  0  0
  7  9  1  0  0  0  0
  9 15  1  0  0  0  0
M  END
$$$$
