CHEBI:27442
 OpenBabel04252410013D

 23 23  0  0  1  0  0  0  0  0999 V2000
    3.1266    0.4412    1.3596 C   0  0  0  0  0  0  0  0  0  0  0  0
    2.6334    0.0805   -0.0361 C   0  0  1  0  0  0  0  0  0  0  0  0
    3.2321    1.0023   -0.9599 O   0  0  0  0  0  0  0  0  0  0  0  0
    2.7128    0.8494   -2.2815 C   0  0  1  0  0  0  0  0  0  0  0  0
    3.2781    1.8489   -3.1213 O   0  0  0  0  0  0  0  0  0  0  0  0
    3.0702   -0.5445   -2.8297 C   0  0  2  0  0  0  0  0  0  0  0  0
    2.5111   -0.7291   -4.1377 O   0  0  0  0  0  0  0  0  0  0  0  0
    2.5601   -1.6266   -1.8752 C   0  0  1  0  0  0  0  0  0  0  0  0
    3.0511   -2.8989   -2.3246 O   0  0  0  0  0  0  0  0  0  0  0  0
    3.0223   -1.3515   -0.4389 C   0  0  1  0  0  0  0  0  0  0  0  0
    4.4492   -1.5371   -0.3997 O   0  0  0  0  0  0  0  0  0  0  0  0
    2.8097    1.4573    1.6195 H   0  0  0  0  0  0  0  0  0  0  0  0
    4.2202    0.4355    1.4167 H   0  0  0  0  0  0  0  0  0  0  0  0
    2.7296   -0.2484    2.1105 H   0  0  0  0  0  0  0  0  0  0  0  0
    1.5429    0.2016   -0.0635 H   0  0  0  0  0  0  0  0  0  0  0  0
    1.6284    1.0108   -2.2834 H   0  0  0  0  0  0  0  0  0  0  0  0
    3.3402    1.4453   -4.0071 H   0  0  0  0  0  0  0  0  0  0  0  0
    4.1572   -0.6302   -2.9523 H   0  0  0  0  0  0  0  0  0  0  0  0
    2.5920   -1.6881   -4.3193 H   0  0  0  0  0  0  0  0  0  0  0  0
    1.4659   -1.6765   -1.9222 H   0  0  0  0  0  0  0  0  0  0  0  0
    3.9123   -3.0229   -1.8716 H   0  0  0  0  0  0  0  0  0  0  0  0
    2.5906   -2.0907    0.2441 H   0  0  0  0  0  0  0  0  0  0  0  0
    4.8591   -0.6568   -0.5250 H   0  0  0  0  0  0  0  0  0  0  0  0
  1 12  1  0  0  0  0
  1 13  1  0  0  0  0
  1 14  1  0  0  0  0
  2  3  1  0  0  0  0
  2 10  1  0  0  0  0
  2  1  1  0  0  0  0
  2 15  1  6  0  0  0
  3  4  1  0  0  0  0
  4  5  1  0  0  0  0
  4  6  1  0  0  0  0
  4 16  1  1  0  0  0
  5 17  1  0  0  0  0
  6  8  1  0  0  0  0
  6  7  1  0  0  0  0
  6 18  1  6  0  0  0
  7 19  1  0  0  0  0
  8  9  1  0  0  0  0
  8 10  1  0  0  0  0
  8 20  1  6  0  0  0
  9 21  1  0  0  0  0
 10 11  1  0  0  0  0
 10 22  1  1  0  0  0
 11 23  1  0  0  0  0
M  END
$$$$
