CHEBI:18125
 OpenBabel04242423343D

 20 20  0  0  0  0  0  0  0  0999 V2000
    3.6108   -0.5468   -1.1761 O   0  0  0  0  0  0  0  0  0  0  0  0
    3.4828    0.1177   -0.1617 C   0  0  0  0  0  0  0  0  0  0  0  0
    2.6064   -0.1774    0.8171 O   0  0  0  0  0  0  0  0  0  0  0  0
    4.2372    1.3627    0.0599 C   0  0  0  0  0  0  0  0  0  0  0  0
    4.6575    1.7633    1.2698 C   0  0  0  0  0  0  0  0  0  0  0  0
    5.4126    3.0044    1.5115 C   0  0  0  0  0  0  0  0  0  0  0  0
    6.4064    3.4435    0.6250 C   0  0  0  0  0  0  0  0  0  0  0  0
    7.1346    4.6068    0.8897 C   0  0  0  0  0  0  0  0  0  0  0  0
    6.8868    5.3395    2.0488 C   0  0  0  0  0  0  0  0  0  0  0  0
    5.9137    4.9101    2.9502 C   0  0  0  0  0  0  0  0  0  0  0  0
    5.1881    3.7478    2.6818 C   0  0  0  0  0  0  0  0  0  0  0  0
    4.2313    3.3265    3.5694 O   0  0  0  0  0  0  0  0  0  0  0  0
    2.5052    0.5302    1.4810 H   0  0  0  0  0  0  0  0  0  0  0  0
    4.4712    1.9047   -0.8495 H   0  0  0  0  0  0  0  0  0  0  0  0
    4.4525    1.1789    2.1641 H   0  0  0  0  0  0  0  0  0  0  0  0
    6.6382    2.8798   -0.2759 H   0  0  0  0  0  0  0  0  0  0  0  0
    7.9013    4.9358    0.1921 H   0  0  0  0  0  0  0  0  0  0  0  0
    7.4575    6.2424    2.2518 H   0  0  0  0  0  0  0  0  0  0  0  0
    5.7378    5.4898    3.8511 H   0  0  0  0  0  0  0  0  0  0  0  0
    4.2126    3.9436    4.3199 H   0  0  0  0  0  0  0  0  0  0  0  0
  1  2  2  0  0  0  0
  2  3  1  0  0  0  0
  2  4  1  0  0  0  0
  3 13  1  0  0  0  0
  4  5  2  0  0  0  0
  4 14  1  0  0  0  0
  5  6  1  0  0  0  0
  5 15  1  0  0  0  0
  6  7  1  0  0  0  0
  6 11  2  0  0  0  0
  7  8  2  0  0  0  0
  7 16  1  0  0  0  0
  8  9  1  0  0  0  0
  8 17  1  0  0  0  0
  9 10  2  0  0  0  0
  9 18  1  0  0  0  0
 10 11  1  0  0  0  0
 10 19  1  0  0  0  0
 11 12  1  0  0  0  0
 12 20  1  0  0  0  0
M  END
$$$$
