CHEBI:2686
 OpenBabel04242410383D

 23 24  0  0  0  0  0  0  0  0999 V2000
    1.1480   -0.0401    0.4996 N   0  0  0  0  0  0  0  0  0  0  0  0
    2.4830    0.0555    0.1427 C   0  0  0  0  0  0  0  0  0  0  0  0
    3.1714    1.2038    0.0322 C   0  0  0  0  0  0  0  0  0  0  0  0
    4.5782    1.2462   -0.3473 C   0  0  0  0  0  0  0  0  0  0  0  0
    5.3329    2.5095   -0.4788 C   0  0  0  0  0  0  0  0  0  0  0  0
    4.8756    3.5144   -1.3346 C   0  0  0  0  0  0  0  0  0  0  0  0
    5.6059    4.6879   -1.4274 C   0  0  0  0  0  0  0  0  0  0  0  0
    6.7410    4.9218   -0.7363 N   0  0  0  0  0  0  0  0  0  0  0  0
    7.1628    3.9411    0.0890 C   0  0  0  0  0  0  0  0  0  0  0  0
    6.5021    2.7345    0.2527 C   0  0  0  0  0  0  0  0  0  0  0  0
    5.2062    0.0829   -0.5991 C   0  0  0  0  0  0  0  0  0  0  0  0
    4.5436   -1.1139   -0.5054 N   0  0  0  0  0  0  0  0  0  0  0  0
    3.2185   -1.2354   -0.1689 C   0  0  0  0  0  0  0  0  0  0  0  0
    2.6419   -2.3201   -0.1452 O   0  0  0  0  0  0  0  0  0  0  0  0
    0.5821    0.7316    0.1629 H   0  0  0  0  0  0  0  0  0  0  0  0
    0.7736   -0.9552    0.2362 H   0  0  0  0  0  0  0  0  0  0  0  0
    2.6863    2.1483    0.2576 H   0  0  0  0  0  0  0  0  0  0  0  0
    3.9738    3.3916   -1.9248 H   0  0  0  0  0  0  0  0  0  0  0  0
    5.2872    5.4953   -2.0806 H   0  0  0  0  0  0  0  0  0  0  0  0
    8.0760    4.1579    0.6362 H   0  0  0  0  0  0  0  0  0  0  0  0
    6.8927    1.9949    0.9435 H   0  0  0  0  0  0  0  0  0  0  0  0
    6.2489    0.0216   -0.8972 H   0  0  0  0  0  0  0  0  0  0  0  0
    5.0227   -1.9818   -0.7108 H   0  0  0  0  0  0  0  0  0  0  0  0
  1  2  1  0  0  0  0
  1 15  1  0  0  0  0
  1 16  1  0  0  0  0
  2  3  2  0  0  0  0
  2 13  1  0  0  0  0
  3  4  1  0  0  0  0
  3 17  1  0  0  0  0
  4  5  1  0  0  0  0
  4 11  2  0  0  0  0
  5  6  1  0  0  0  0
  5 10  2  0  0  0  0
  6  7  2  0  0  0  0
  6 18  1  0  0  0  0
  7  8  1  0  0  0  0
  7 19  1  0  0  0  0
  8  9  2  0  0  0  0
  9 10  1  0  0  0  0
  9 20  1  0  0  0  0
 10 21  1  0  0  0  0
 11 12  1  0  0  0  0
 11 22  1  0  0  0  0
 12 13  1  0  0  0  0
 12 23  1  0  0  0  0
 13 14  2  0  0  0  0
M  END
$$$$
