CHEBI:15428
 OpenBabel04242411523D

 10  9  0  0  0  0  0  0  0  0999 V2000
    1.0934    0.1578    0.4267 N   0  0  0  0  0  0  0  0  0  0  0  0
    2.4986   -0.0016   -0.0350 C   0  0  0  0  0  0  0  0  0  0  0  0
    3.2502   -0.9061    0.9396 C   0  0  0  0  0  0  0  0  0  0  0  0
    4.4610   -1.0538    0.9665 O   0  0  0  0  0  0  0  0  0  0  0  0
    2.3924   -1.5612    1.7650 O   0  0  0  0  0  0  0  0  0  0  0  0
    0.5628    0.5772   -0.3425 H   0  0  0  0  0  0  0  0  0  0  0  0
    1.0859    0.8806    1.1554 H   0  0  0  0  0  0  0  0  0  0  0  0
    2.9843    0.9766   -0.0790 H   0  0  0  0  0  0  0  0  0  0  0  0
    2.5050   -0.4783   -1.0190 H   0  0  0  0  0  0  0  0  0  0  0  0
    1.4868   -1.2568    1.5044 H   0  0  0  0  0  0  0  0  0  0  0  0
  1  2  1  0  0  0  0
  1  6  1  0  0  0  0
  1  7  1  0  0  0  0
  2  3  1  0  0  0  0
  2  8  1  0  0  0  0
  2  9  1  0  0  0  0
  3  4  2  0  0  0  0
  3  5  1  0  0  0  0
  5 10  1  0  0  0  0
M  END
$$$$
