CHEBI:16142
 OpenBabel04242413543D

 23 22  0  0  1  0  0  0  0  0999 V2000
    3.2278    0.5835    0.5434 O   0  0  0  0  0  0  0  0  0  0  0  0
    3.4109   -0.4703    1.1378 C   0  0  0  0  0  0  0  0  0  0  0  0
    2.5966   -1.5476    0.9832 O   0  0  0  0  0  0  0  0  0  0  0  0
    4.4964   -0.7221    2.1738 C   0  0  1  0  0  0  0  0  0  0  0  0
    4.4068   -2.1184    2.5586 O   0  0  0  0  0  0  0  0  0  0  0  0
    5.9073   -0.4269    1.6925 C   0  0  0  0  0  0  0  0  0  0  0  0
    6.7516   -1.3348    1.7108 O   0  0  0  0  0  0  0  0  0  0  0  0
    6.2799    0.9950    1.2655 C   0  0  2  0  0  0  0  0  0  0  0  0
    5.2517    1.9549    1.4524 O   0  0  0  0  0  0  0  0  0  0  0  0
    6.7692    0.9672   -0.1872 C   0  0  1  0  0  0  0  0  0  0  0  0
    5.6995    0.5204   -1.0340 O   0  0  0  0  0  0  0  0  0  0  0  0
    7.2108    2.3480   -0.6798 C   0  0  0  0  0  0  0  0  0  0  0  0
    7.6276    2.2180   -2.0426 O   0  0  0  0  0  0  0  0  0  0  0  0
    2.9215   -2.2602    1.5864 H   0  0  0  0  0  0  0  0  0  0  0  0
    4.2805   -0.1350    3.0706 H   0  0  0  0  0  0  0  0  0  0  0  0
    5.2818   -2.5080    2.3299 H   0  0  0  0  0  0  0  0  0  0  0  0
    7.1021    1.3025    1.9224 H   0  0  0  0  0  0  0  0  0  0  0  0
    4.5699    1.7897    0.7571 H   0  0  0  0  0  0  0  0  0  0  0  0
    7.5864    0.2474   -0.3133 H   0  0  0  0  0  0  0  0  0  0  0  0
    6.0048    0.7040   -1.9469 H   0  0  0  0  0  0  0  0  0  0  0  0
    8.0460    2.7354   -0.0894 H   0  0  0  0  0  0  0  0  0  0  0  0
    6.3808    3.0615   -0.6627 H   0  0  0  0  0  0  0  0  0  0  0  0
    7.8507    3.1135   -2.3547 H   0  0  0  0  0  0  0  0  0  0  0  0
  1  2  2  0  0  0  0
  2  3  1  0  0  0  0
  2  4  1  0  0  0  0
  3 14  1  0  0  0  0
  4  5  1  0  0  0  0
  4  6  1  0  0  0  0
  4 15  1  1  0  0  0
  5 16  1  0  0  0  0
  6  7  2  0  0  0  0
  8 10  1  0  0  0  0
  8  9  1  0  0  0  0
  8  6  1  0  0  0  0
  8 17  1  1  0  0  0
  9 18  1  0  0  0  0
 10 11  1  0  0  0  0
 10 12  1  0  0  0  0
 10 19  1  6  0  0  0
 11 20  1  0  0  0  0
 12 13  1  0  0  0  0
 12 21  1  0  0  0  0
 12 22  1  0  0  0  0
 13 23  1  0  0  0  0
M  END
$$$$
