CHEBI:16244
 OpenBabel04242414033D

 25 24  0  0  0  0  0  0  0  0999 V2000
    0.3154   -0.9144    1.3160 C   0  0  0  0  0  0  0  0  0  0  0  0
    1.3549    0.0743    1.8318 N   0  3  0  0  0  0  0  0  0  0  0  0
    0.9447    1.4794    1.4616 C   0  0  0  0  0  0  0  0  0  0  0  0
    1.3906   -0.0667    3.3583 C   0  0  0  0  0  0  0  0  0  0  0  0
    2.7099   -0.3252    1.2018 C   0  0  0  0  0  0  0  0  0  0  0  0
    3.8489    0.7012    1.2937 C   0  0  0  0  0  0  0  0  0  0  0  0
    4.4213    1.0053    2.6738 C   0  0  0  0  0  0  0  0  0  0  0  0
    4.5596   -0.2673    3.5034 C   0  0  0  0  0  0  0  0  0  0  0  0
    4.0495   -0.1923    4.6536 O   0  0  0  0  0  0  0  0  0  0  0  0
    5.0045   -1.2666    2.8792 O   0  5  0  0  0  0  0  0  0  0  0  0
   -0.6531   -0.6724    1.7646 H   0  0  0  0  0  0  0  0  0  0  0  0
    0.6238   -1.9258    1.5981 H   0  0  0  0  0  0  0  0  0  0  0  0
    0.2543   -0.8204    0.2274 H   0  0  0  0  0  0  0  0  0  0  0  0
   -0.0692    1.6547    1.8349 H   0  0  0  0  0  0  0  0  0  0  0  0
    0.9672    1.5726    0.3720 H   0  0  0  0  0  0  0  0  0  0  0  0
    1.6318    2.1914    1.9259 H   0  0  0  0  0  0  0  0  0  0  0  0
    0.3598   -0.0103    3.7246 H   0  0  0  0  0  0  0  0  0  0  0  0
    1.9430    0.7708    3.7796 H   0  0  0  0  0  0  0  0  0  0  0  0
    1.8146   -1.0412    3.6108 H   0  0  0  0  0  0  0  0  0  0  0  0
    2.5015   -0.4671    0.1329 H   0  0  0  0  0  0  0  0  0  0  0  0
    2.9696   -1.3117    1.5959 H   0  0  0  0  0  0  0  0  0  0  0  0
    3.5605    1.6413    0.8095 H   0  0  0  0  0  0  0  0  0  0  0  0
    4.6700    0.3119    0.6751 H   0  0  0  0  0  0  0  0  0  0  0  0
    3.7955    1.7408    3.1894 H   0  0  0  0  0  0  0  0  0  0  0  0
    5.4129    1.4617    2.5718 H   0  0  0  0  0  0  0  0  0  0  0  0
  1  2  1  0  0  0  0
  1 11  1  0  0  0  0
  1 12  1  0  0  0  0
  1 13  1  0  0  0  0
  2  3  1  0  0  0  0
  2  4  1  0  0  0  0
  2  5  1  0  0  0  0
  3 14  1  0  0  0  0
  3 15  1  0  0  0  0
  3 16  1  0  0  0  0
  4 17  1  0  0  0  0
  4 18  1  0  0  0  0
  4 19  1  0  0  0  0
  5  6  1  0  0  0  0
  5 20  1  0  0  0  0
  5 21  1  0  0  0  0
  6  7  1  0  0  0  0
  6 22  1  0  0  0  0
  6 23  1  0  0  0  0
  7  8  1  0  0  0  0
  7 24  1  0  0  0  0
  7 25  1  0  0  0  0
  8  9  2  0  0  0  0
  8 10  1  0  0  0  0
M  CHG  2   2   1  10  -1
M  END
$$$$
