CHEBI:15606
 OpenBabel04242412523D

 29 31  0  0  1  0  0  0  0  0999 V2000
   -1.6238   -2.0751   -0.3369 O   0  0  0  0  0  0  0  0  0  0  0  0
   -1.2525   -0.9093   -0.2472 C   0  0  0  0  0  0  0  0  0  0  0  0
   -2.2112    0.2430   -0.2331 C   0  0  0  0  0  0  0  0  0  0  0  0
   -1.6437    1.4058    0.5725 C   0  0  1  0  0  0  0  0  0  0  0  0
   -1.8152    1.2531    2.0809 C   0  0  0  0  0  0  0  0  0  0  0  0
   -0.8222    0.7195    2.9155 C   0  0  0  0  0  0  0  0  0  0  0  0
   -1.0376    0.5816    4.2895 C   0  0  0  0  0  0  0  0  0  0  0  0
   -2.2471    0.9775    4.8528 C   0  0  0  0  0  0  0  0  0  0  0  0
   -3.2453    1.5095    4.0425 C   0  0  0  0  0  0  0  0  0  0  0  0
   -3.0332    1.6423    2.6685 C   0  0  0  0  0  0  0  0  0  0  0  0
   -0.3148    1.7849    0.1814 O   0  0  0  0  0  0  0  0  0  0  0  0
    0.5533    0.7663   -0.0928 C   0  0  0  0  0  0  0  0  0  0  0  0
    1.9022    1.1162   -0.1635 C   0  0  0  0  0  0  0  0  0  0  0  0
    2.8712    0.1348   -0.3815 C   0  0  0  0  0  0  0  0  0  0  0  0
    2.4933   -1.1992   -0.5356 C   0  0  0  0  0  0  0  0  0  0  0  0
    1.1444   -1.5516   -0.4826 C   0  0  0  0  0  0  0  0  0  0  0  0
    0.1781   -0.5636   -0.2676 C   0  0  0  0  0  0  0  0  0  0  0  0
   -3.1735   -0.0907    0.1701 H   0  0  0  0  0  0  0  0  0  0  0  0
   -2.3573    0.5416   -1.2784 H   0  0  0  0  0  0  0  0  0  0  0  0
   -2.2448    2.2842    0.2994 H   0  0  0  0  0  0  0  0  0  0  0  0
    0.1391    0.4036    2.5219 H   0  0  0  0  0  0  0  0  0  0  0  0
   -0.2561    0.1640    4.9195 H   0  0  0  0  0  0  0  0  0  0  0  0
   -2.4103    0.8710    5.9218 H   0  0  0  0  0  0  0  0  0  0  0  0
   -4.1906    1.8206    4.4796 H   0  0  0  0  0  0  0  0  0  0  0  0
   -3.8316    2.0587    2.0571 H   0  0  0  0  0  0  0  0  0  0  0  0
    2.2013    2.1530   -0.0297 H   0  0  0  0  0  0  0  0  0  0  0  0
    3.9222    0.4112   -0.4244 H   0  0  0  0  0  0  0  0  0  0  0  0
    3.2485   -1.9638   -0.7014 H   0  0  0  0  0  0  0  0  0  0  0  0
    0.8489   -2.5905   -0.6144 H   0  0  0  0  0  0  0  0  0  0  0  0
  1  2  2  0  0  0  0
  2  3  1  0  0  0  0
  2 17  1  0  0  0  0
  3  4  1  0  0  0  0
  3 18  1  0  0  0  0
  3 19  1  0  0  0  0
  4  5  1  0  0  0  0
  4 11  1  0  0  0  0
  4 20  1  6  0  0  0
  5  6  1  0  0  0  0
  5 10  2  0  0  0  0
  6  7  2  0  0  0  0
  6 21  1  0  0  0  0
  7  8  1  0  0  0  0
  7 22  1  0  0  0  0
  8  9  2  0  0  0  0
  8 23  1  0  0  0  0
  9 10  1  0  0  0  0
  9 24  1  0  0  0  0
 10 25  1  0  0  0  0
 11 12  1  0  0  0  0
 12 13  1  0  0  0  0
 12 17  2  0  0  0  0
 13 14  2  0  0  0  0
 13 26  1  0  0  0  0
 14 15  1  0  0  0  0
 14 27  1  0  0  0  0
 15 16  2  0  0  0  0
 15 28  1  0  0  0  0
 16 17  1  0  0  0  0
 16 29  1  0  0  0  0
M  END
$$$$
