CHEBI:16655
 OpenBabel04242415013D

 47 48  0  0  1  0  0  0  0  0999 V2000
    8.5551   -1.4528   -2.4048 C   0  0  0  0  0  0  0  0  0  0  0  0
    7.4307   -0.6432   -1.8147 C   0  0  0  0  0  0  0  0  0  0  0  0
    6.7622   -1.0381   -0.8655 O   0  0  0  0  0  0  0  0  0  0  0  0
    7.1979    0.5444   -2.4596 N   0  0  0  0  0  0  0  0  0  0  0  0
    6.2330    1.5501   -1.9687 C   0  0  1  0  0  0  0  0  0  0  0  0
    6.3473    2.8206   -2.8445 C   0  0  0  0  0  0  0  0  0  0  0  0
    7.7001    3.2684   -2.8232 O   0  0  0  0  0  0  0  0  0  0  0  0
    6.0217    2.5840   -4.2095 O   0  0  0  0  0  0  0  0  0  0  0  0
    4.9749    1.6206   -4.4330 C   0  0  2  0  0  0  0  0  0  0  0  0
    4.2405    1.9988   -5.7321 C   0  0  0  0  0  0  0  0  0  0  0  0
    3.5316    3.2344   -5.6443 O   0  0  0  0  0  0  0  0  0  0  0  0
    4.0167    1.5135   -3.2382 C   0  0  2  0  0  0  0  0  0  0  0  0
    3.4081    2.8016   -3.0080 O   0  0  0  0  0  0  0  0  0  0  0  0
    4.7704    1.0406   -1.9791 C   0  0  2  0  0  0  0  0  0  0  0  0
    4.0950    1.5608   -0.8150 O   0  0  0  0  0  0  0  0  0  0  0  0
    3.1368    0.6595   -0.2417 C   0  0  2  0  0  0  0  0  0  0  0  0
    2.0693    0.3258   -1.1432 O   0  0  0  0  0  0  0  0  0  0  0  0
    1.1243    1.3171   -1.3571 C   0  0  0  0  0  0  0  0  0  0  0  0
    0.3510    1.2188   -2.6298 C   0  0  0  0  0  0  0  0  0  0  0  0
    0.4598    0.3188   -3.4439 O   0  0  0  0  0  0  0  0  0  0  0  0
   -0.4830    2.2513   -2.8454 O   0  0  0  0  0  0  0  0  0  0  0  0
    0.9488    2.3473   -0.5131 C   0  0  0  0  0  0  0  0  0  0  0  0
    1.7245    2.5015    0.7507 C   0  0  2  0  0  0  0  0  0  0  0  0
    2.5303    3.6636    0.5722 O   0  0  0  0  0  0  0  0  0  0  0  0
    2.5765    1.2580    1.0661 C   0  0  1  0  0  0  0  0  0  0  0  0
    1.7829    0.2899    1.7741 O   0  0  0  0  0  0  0  0  0  0  0  0
    8.1534   -2.3974   -2.7818 H   0  0  0  0  0  0  0  0  0  0  0  0
    9.3030   -1.6482   -1.6323 H   0  0  0  0  0  0  0  0  0  0  0  0
    9.0400   -0.9303   -3.2347 H   0  0  0  0  0  0  0  0  0  0  0  0
    7.9585    0.9409   -3.0064 H   0  0  0  0  0  0  0  0  0  0  0  0
    6.5486    1.7851   -0.9441 H   0  0  0  0  0  0  0  0  0  0  0  0
    5.7221    3.6274   -2.4456 H   0  0  0  0  0  0  0  0  0  0  0  0
    7.6730    4.1189   -3.2957 H   0  0  0  0  0  0  0  0  0  0  0  0
    5.4598    0.6511   -4.6008 H   0  0  0  0  0  0  0  0  0  0  0  0
    4.9576    2.1017   -6.5525 H   0  0  0  0  0  0  0  0  0  0  0  0
    3.5207    1.2183   -5.9992 H   0  0  0  0  0  0  0  0  0  0  0  0
    3.3053    3.3696   -4.6988 H   0  0  0  0  0  0  0  0  0  0  0  0
    3.2087    0.8135   -3.4694 H   0  0  0  0  0  0  0  0  0  0  0  0
    3.2548    2.8713   -2.0406 H   0  0  0  0  0  0  0  0  0  0  0  0
    4.7614   -0.0550   -1.9542 H   0  0  0  0  0  0  0  0  0  0  0  0
    3.6439   -0.2815    0.0043 H   0  0  0  0  0  0  0  0  0  0  0  0
   -0.8463    2.0747   -3.7383 H   0  0  0  0  0  0  0  0  0  0  0  0
    0.2325    3.1350   -0.7331 H   0  0  0  0  0  0  0  0  0  0  0  0
    1.0253    2.6984    1.5715 H   0  0  0  0  0  0  0  0  0  0  0  0
    2.9634    3.8479    1.4242 H   0  0  0  0  0  0  0  0  0  0  0  0
    3.4067    1.5428    1.7226 H   0  0  0  0  0  0  0  0  0  0  0  0
    1.1998   -0.1456    1.1238 H   0  0  0  0  0  0  0  0  0  0  0  0
  1  2  1  0  0  0  0
  1 27  1  0  0  0  0
  1 28  1  0  0  0  0
  1 29  1  0  0  0  0
  2  3  2  0  0  0  0
  2  4  1  0  0  0  0
  4 30  1  0  0  0  0
  5  6  1  0  0  0  0
  5 14  1  0  0  0  0
  5  4  1  0  0  0  0
  5 31  1  1  0  0  0
  6  7  1  0  0  0  0
  6  8  1  0  0  0  0
  6 32  1  0  0  0  0
  7 33  1  0  0  0  0
  8  9  1  0  0  0  0
  9 12  1  0  0  0  0
  9 10  1  0  0  0  0
  9 34  1  6  0  0  0
 10 11  1  0  0  0  0
 10 35  1  0  0  0  0
 10 36  1  0  0  0  0
 11 37  1  0  0  0  0
 12 14  1  0  0  0  0
 12 13  1  0  0  0  0
 12 38  1  6  0  0  0
 13 39  1  0  0  0  0
 14 15  1  0  0  0  0
 14 40  1  1  0  0  0
 15 16  1  0  0  0  0
 16 17  1  0  0  0  0
 16 25  1  0  0  0  0
 16 41  1  1  0  0  0
 17 18  1  0  0  0  0
 18 19  1  0  0  0  0
 18 22  2  0  0  0  0
 19 20  2  0  0  0  0
 19 21  1  0  0  0  0
 21 42  1  0  0  0  0
 22 23  1  0  0  0  0
 22 43  1  0  0  0  0
 23 24  1  0  0  0  0
 23 25  1  0  0  0  0
 23 44  1  1  0  0  0
 24 45  1  0  0  0  0
 25 26  1  0  0  0  0
 25 46  1  1  0  0  0
 26 47  1  0  0  0  0
M  END
$$$$
