CHEBI:16080
 OpenBabel04242413463D

 17 16  0  0  0  0  0  0  0  0999 V2000
    1.4737    0.6273   -1.5715 N   0  0  0  0  0  0  0  0  0  0  0  0
    2.8634    0.6675   -1.0968 C   0  0  0  0  0  0  0  0  0  0  0  0
    2.8977    0.2964    0.3944 C   0  0  0  0  0  0  0  0  0  0  0  0
    2.1894   -0.9474    0.5700 O   0  0  0  0  0  0  0  0  0  0  0  0
    4.3193    0.1067    0.8986 C   0  0  0  0  0  0  0  0  0  0  0  0
    4.3453   -0.1019    2.3909 C   0  0  0  0  0  0  0  0  0  0  0  0
    5.1357    0.4615    3.1342 O   0  0  0  0  0  0  0  0  0  0  0  0
    3.4621   -1.0252    2.8327 O   0  0  0  0  0  0  0  0  0  0  0  0
    1.4642    0.8089   -2.5775 H   0  0  0  0  0  0  0  0  0  0  0  0
    0.9507    1.4012   -1.1558 H   0  0  0  0  0  0  0  0  0  0  0  0
    3.2981    1.6577   -1.2666 H   0  0  0  0  0  0  0  0  0  0  0  0
    3.4345   -0.0655   -1.6773 H   0  0  0  0  0  0  0  0  0  0  0  0
    2.3707    1.0539    0.9871 H   0  0  0  0  0  0  0  0  0  0  0  0
    1.4747   -0.9065   -0.1081 H   0  0  0  0  0  0  0  0  0  0  0  0
    4.9178    0.9963    0.6726 H   0  0  0  0  0  0  0  0  0  0  0  0
    4.7998   -0.7633    0.4369 H   0  0  0  0  0  0  0  0  0  0  0  0
    2.8812   -1.3525    2.0999 H   0  0  0  0  0  0  0  0  0  0  0  0
  1  2  1  0  0  0  0
  1  9  1  0  0  0  0
  1 10  1  0  0  0  0
  2  3  1  0  0  0  0
  2 11  1  0  0  0  0
  2 12  1  0  0  0  0
  3  4  1  0  0  0  0
  3  5  1  0  0  0  0
  3 13  1  0  0  0  0
  4 14  1  0  0  0  0
  5  6  1  0  0  0  0
  5 15  1  0  0  0  0
  5 16  1  0  0  0  0
  6  7  2  0  0  0  0
  6  8  1  0  0  0  0
  8 17  1  0  0  0  0
M  END
$$$$
