CHEBI:15674
 OpenBabel04242413033D

 16 15  0  0  0  0  0  0  0  0999 V2000
    1.2724    0.8951   -0.1905 O   0  0  0  0  0  0  0  0  0  0  0  0
    1.9558    0.3222    0.6451 C   0  0  0  0  0  0  0  0  0  0  0  0
    1.4898    0.0701    1.8809 O   0  0  0  0  0  0  0  0  0  0  0  0
    3.3324   -0.2682    0.3762 C   0  0  0  0  0  0  0  0  0  0  0  0
    3.8826    0.1495   -0.8852 O   0  0  0  0  0  0  0  0  0  0  0  0
    4.3535    0.0429    1.4660 C   0  0  0  0  0  0  0  0  0  0  0  0
    5.6601   -0.4244    1.0426 O   0  0  0  0  0  0  0  0  0  0  0  0
    4.4755    1.5403    1.7498 C   0  0  0  0  0  0  0  0  0  0  0  0
    3.5464    2.3190    1.8893 O   0  0  0  0  0  0  0  0  0  0  0  0
    5.7765    1.9141    1.8804 O   0  0  0  0  0  0  0  0  0  0  0  0
    0.6343    0.5514    1.9221 H   0  0  0  0  0  0  0  0  0  0  0  0
    3.2084   -1.3539    0.2917 H   0  0  0  0  0  0  0  0  0  0  0  0
    3.1174    0.3989   -1.4458 H   0  0  0  0  0  0  0  0  0  0  0  0
    4.1119   -0.4531    2.4116 H   0  0  0  0  0  0  0  0  0  0  0  0
    5.6508   -0.3252    0.0625 H   0  0  0  0  0  0  0  0  0  0  0  0
    6.3388    1.1169    1.7288 H   0  0  0  0  0  0  0  0  0  0  0  0
  1  2  2  0  0  0  0
  2  3  1  0  0  0  0
  2  4  1  0  0  0  0
  3 11  1  0  0  0  0
  4  5  1  0  0  0  0
  4  6  1  0  0  0  0
  4 12  1  0  0  0  0
  5 13  1  0  0  0  0
  6  7  1  0  0  0  0
  6  8  1  0  0  0  0
  6 14  1  0  0  0  0
  7 15  1  0  0  0  0
  8  9  2  0  0  0  0
  8 10  1  0  0  0  0
 10 16  1  0  0  0  0
M  END
$$$$
