CHEBI:27403
 OpenBabel04252409493D

159165  0  0  1  0  0  0  0  0999 V2000
   -5.1945  -20.5683  -11.8728 C   0  0  0  0  0  0  0  0  0  0  0  0
   -5.7814  -19.1531  -12.1003 C   0  0  0  0  0  0  0  0  0  0  0  0
   -7.3046  -19.2402  -11.8679 C   0  0  0  0  0  0  0  0  0  0  0  0
   -7.8822  -20.3235  -11.8229 O   0  0  0  0  0  0  0  0  0  0  0  0
   -8.2402  -17.7475  -11.9513 S   0  0  0  0  0  0  0  0  0  0  0  0
   -9.9518  -18.3015  -12.1556 C   0  0  0  0  0  0  0  0  0  0  0  0
  -10.5647  -19.3756  -11.2503 C   0  0  0  0  0  0  0  0  0  0  0  0
  -10.7649  -19.0678   -9.8421 N   0  0  0  0  0  0  0  0  0  0  0  0
   -9.7481  -19.1719   -8.9119 C   0  0  0  0  0  0  0  0  0  0  0  0
   -8.5554  -19.0352   -9.1474 O   0  0  0  0  0  0  0  0  0  0  0  0
  -10.2306  -19.5075   -7.5199 C   0  0  0  0  0  0  0  0  0  0  0  0
  -10.5115  -18.2528   -6.7155 C   0  0  0  0  0  0  0  0  0  0  0  0
  -11.2831  -18.5299   -5.5089 N   0  0  0  0  0  0  0  0  0  0  0  0
  -12.6300  -18.7520   -5.3820 C   0  0  0  0  0  0  0  0  0  0  0  0
  -13.0810  -18.9835   -4.2625 O   0  0  0  0  0  0  0  0  0  0  0  0
  -13.5077  -18.7147   -6.6595 C   0  0  2  0  0  0  0  0  0  0  0  0
  -13.3731  -17.4593   -7.3266 O   0  0  0  0  0  0  0  0  0  0  0  0
  -15.0152  -19.0909   -6.5030 C   0  0  0  0  0  0  0  0  0  0  0  0
  -15.7821  -18.0983   -5.6101 C   0  0  0  0  0  0  0  0  0  0  0  0
  -15.6595  -19.0096   -7.9058 C   0  0  0  0  0  0  0  0  0  0  0  0
  -15.1282  -20.5303   -5.9293 C   0  0  0  0  0  0  0  0  0  0  0  0
  -16.4215  -21.1100   -6.0524 O   0  0  0  0  0  0  0  0  0  0  0  0
  -16.7126  -22.1725   -7.2191 P   0  0  0  0  0  0  0  0  0  0  0  0
  -16.8760  -21.6239   -8.5961 O   0  0  0  0  0  0  0  0  0  0  0  0
  -15.4327  -23.1410   -7.2020 O   0  0  0  0  0  0  0  0  0  0  0  0
  -17.8595  -23.1406   -6.7287 O   0  0  0  0  0  0  0  0  0  0  0  0
  -19.3878  -22.8109   -6.5036 P   0  0  0  0  0  0  0  0  0  0  0  0
  -19.9533  -23.3680   -5.2365 O   0  0  0  0  0  0  0  0  0  0  0  0
  -19.4878  -21.2142   -6.4792 O   0  0  0  0  0  0  0  0  0  0  0  0
  -20.2132  -23.2072   -7.8144 O   0  0  0  0  0  0  0  0  0  0  0  0
  -19.7207  -23.1333   -9.1330 C   0  0  0  0  0  0  0  0  0  0  0  0
  -20.4305  -22.0963  -10.0167 C   0  0  1  0  0  0  0  0  0  0  0  0
  -21.8174  -22.4887  -10.1725 O   0  0  0  0  0  0  0  0  0  0  0  0
  -22.6491  -21.4625   -9.5895 C   0  0  1  0  0  0  0  0  0  0  0  0
  -23.7734  -22.0977   -8.9370 N   0  0  0  0  0  0  0  0  0  0  0  0
  -25.0169  -22.2270   -9.5081 C   0  0  0  0  0  0  0  0  0  0  0  0
  -25.8471  -22.9093   -8.7494 N   0  0  0  0  0  0  0  0  0  0  0  0
  -25.1050  -23.2413   -7.6355 C   0  0  0  0  0  0  0  0  0  0  0  0
  -25.4154  -23.9855   -6.4845 C   0  0  0  0  0  0  0  0  0  0  0  0
  -26.6639  -24.5545   -6.2580 N   0  0  0  0  0  0  0  0  0  0  0  0
  -24.4486  -24.1932   -5.5650 N   0  0  0  0  0  0  0  0  0  0  0  0
  -23.2378  -23.6375   -5.7777 C   0  0  0  0  0  0  0  0  0  0  0  0
  -22.8380  -22.8758   -6.8168 N   0  0  0  0  0  0  0  0  0  0  0  0
  -23.8160  -22.7372   -7.7268 C   0  0  0  0  0  0  0  0  0  0  0  0
  -21.7479  -20.5757   -8.7316 C   0  0  2  0  0  0  0  0  0  0  0  0
  -22.2466  -19.2441   -8.5956 O   0  0  0  0  0  0  0  0  0  0  0  0
  -20.4399  -20.6522   -9.5114 C   0  0  2  0  0  0  0  0  0  0  0  0
  -20.5547  -19.7466  -10.6180 O   0  0  0  0  0  0  0  0  0  0  0  0
  -19.2873  -19.4196  -11.5342 P   0  0  0  0  0  0  0  0  0  0  0  0
  -19.4174  -19.6940  -12.9889 O   0  0  0  0  0  0  0  0  0  0  0  0
  -19.0114  -17.8810  -11.2131 O   0  0  0  0  0  0  0  0  0  0  0  0
  -18.0393  -20.1166  -10.8421 O   0  0  0  0  0  0  0  0  0  0  0  0
   -4.9037  -18.1519  -11.3008 C   0  0  0  0  0  0  0  0  0  0  0  0
   -3.5875  -18.1797  -11.8818 O   0  0  0  0  0  0  0  0  0  0  0  0
   -5.3441  -16.6909  -11.3294 C   0  0  0  0  0  0  0  0  0  0  0  0
   -4.3041  -15.6095  -10.9965 C   0  0  0  0  0  0  0  0  0  0  0  0
   -3.9627  -15.4171   -9.5020 C   0  0  1  0  0  0  0  0  0  0  0  0
   -2.9385  -16.4716   -9.0496 C   0  0  0  0  0  0  0  0  0  0  0  0
   -3.4656  -13.9659   -9.1109 C   0  0  1  0  0  0  0  0  0  0  0  0
   -2.1526  -13.5888   -9.8091 C   0  0  0  0  0  0  0  0  0  0  0  0
   -2.4730  -12.5197  -10.8442 C   0  0  0  0  0  0  0  0  0  0  0  0
   -3.9899  -12.2652  -10.7955 C   0  0  1  0  0  0  0  0  0  0  0  0
   -4.3189  -10.7904  -11.1807 C   0  0  2  0  0  0  0  0  0  0  0  0
   -4.5639  -10.7111  -12.7039 C   0  0  2  0  0  0  0  0  0  0  0  0
   -3.3247  -10.8829  -13.3870 O   0  0  0  0  0  0  0  0  0  0  0  0
   -5.2002   -9.4036  -13.1571 C   0  0  0  0  0  0  0  0  0  0  0  0
   -6.4637   -9.1311  -12.3437 C   0  0  2  0  0  0  0  0  0  0  0  0
   -7.2790   -7.9812  -12.9401 C   0  0  0  0  0  0  0  0  0  0  0  0
   -8.5837   -7.7918  -12.1705 C   0  0  2  0  0  0  0  0  0  0  0  0
   -9.2802   -6.6612  -12.6806 O   0  0  0  0  0  0  0  0  0  0  0  0
   -8.3331   -7.5880  -10.6798 C   0  0  0  0  0  0  0  0  0  0  0  0
   -7.4867   -8.7107  -10.0774 C   0  0  0  0  0  0  0  0  0  0  0  0
   -6.1427   -8.9494  -10.8251 C   0  0  1  0  0  0  0  0  0  0  0  0
   -5.2071   -7.7461  -10.5706 C   0  0  0  0  0  0  0  0  0  0  0  0
   -5.4951  -10.2872  -10.3265 C   0  0  1  0  0  0  0  0  0  0  0  0
   -5.0628  -10.3122   -8.8324 C   0  0  0  0  0  0  0  0  0  0  0  0
   -4.2232  -11.5552   -8.4281 C   0  0  0  0  0  0  0  0  0  0  0  0
   -4.4350  -12.7553   -9.3850 C   0  0  2  0  0  0  0  0  0  0  0  0
   -5.9039  -13.2174   -9.2269 C   0  0  0  0  0  0  0  0  0  0  0  0
   -5.7572  -21.3379  -12.4114 H   0  0  0  0  0  0  0  0  0  0  0  0
   -5.2188  -20.8271  -10.8069 H   0  0  0  0  0  0  0  0  0  0  0  0
   -4.1582  -20.6395  -12.2160 H   0  0  0  0  0  0  0  0  0  0  0  0
   -5.6600  -18.9403  -13.1719 H   0  0  0  0  0  0  0  0  0  0  0  0
  -10.0493  -18.6342  -13.1954 H   0  0  0  0  0  0  0  0  0  0  0  0
  -10.5647  -17.3961  -12.0682 H   0  0  0  0  0  0  0  0  0  0  0  0
  -10.0569  -20.3380  -11.3212 H   0  0  0  0  0  0  0  0  0  0  0  0
  -11.5759  -19.5606  -11.6376 H   0  0  0  0  0  0  0  0  0  0  0  0
  -11.7091  -19.2035   -9.5034 H   0  0  0  0  0  0  0  0  0  0  0  0
   -9.4634  -20.1170   -7.0281 H   0  0  0  0  0  0  0  0  0  0  0  0
  -11.1066  -20.1589   -7.5983 H   0  0  0  0  0  0  0  0  0  0  0  0
  -11.0203  -17.4907   -7.3086 H   0  0  0  0  0  0  0  0  0  0  0  0
   -9.5638  -17.8116   -6.3854 H   0  0  0  0  0  0  0  0  0  0  0  0
  -10.7821  -18.5813   -4.6280 H   0  0  0  0  0  0  0  0  0  0  0  0
  -13.0784  -19.4598   -7.3372 H   0  0  0  0  0  0  0  0  0  0  0  0
  -13.6221  -16.7671   -6.6876 H   0  0  0  0  0  0  0  0  0  0  0  0
  -15.7246  -17.0778   -6.0043 H   0  0  0  0  0  0  0  0  0  0  0  0
  -15.3966  -18.0813   -4.5871 H   0  0  0  0  0  0  0  0  0  0  0  0
  -16.8440  -18.3639   -5.5516 H   0  0  0  0  0  0  0  0  0  0  0  0
  -15.1981  -19.7339   -8.5857 H   0  0  0  0  0  0  0  0  0  0  0  0
  -15.5344  -18.0199   -8.3582 H   0  0  0  0  0  0  0  0  0  0  0  0
  -16.7377  -19.1939   -7.8648 H   0  0  0  0  0  0  0  0  0  0  0  0
  -14.9015  -20.5326   -4.8583 H   0  0  0  0  0  0  0  0  0  0  0  0
  -14.3827  -21.1793   -6.3991 H   0  0  0  0  0  0  0  0  0  0  0  0
  -15.2622  -23.4693   -8.1048 H   0  0  0  0  0  0  0  0  0  0  0  0
  -20.1170  -20.9634   -5.7702 H   0  0  0  0  0  0  0  0  0  0  0  0
  -19.8931  -24.1244   -9.5684 H   0  0  0  0  0  0  0  0  0  0  0  0
  -18.6468  -22.9804   -9.1468 H   0  0  0  0  0  0  0  0  0  0  0  0
  -19.9858  -22.1549  -11.0163 H   0  0  0  0  0  0  0  0  0  0  0  0
  -23.0605  -20.8701  -10.4176 H   0  0  0  0  0  0  0  0  0  0  0  0
  -25.2536  -21.8155  -10.4815 H   0  0  0  0  0  0  0  0  0  0  0  0
  -26.5994  -25.3428   -5.6274 H   0  0  0  0  0  0  0  0  0  0  0  0
  -27.1980  -24.6775   -7.1111 H   0  0  0  0  0  0  0  0  0  0  0  0
  -22.4913  -23.8336   -5.0126 H   0  0  0  0  0  0  0  0  0  0  0  0
  -21.6124  -20.9734   -7.7282 H   0  0  0  0  0  0  0  0  0  0  0  0
  -21.4791  -18.6540   -8.4883 H   0  0  0  0  0  0  0  0  0  0  0  0
  -19.5734  -20.3648   -8.9114 H   0  0  0  0  0  0  0  0  0  0  0  0
  -19.5225  -17.3101  -11.8174 H   0  0  0  0  0  0  0  0  0  0  0  0
  -17.2032  -19.9251  -11.3021 H   0  0  0  0  0  0  0  0  0  0  0  0
   -4.8223  -18.4761  -10.2586 H   0  0  0  0  0  0  0  0  0  0  0  0
   -3.0900  -18.9088  -11.4755 H   0  0  0  0  0  0  0  0  0  0  0  0
   -6.1944  -16.5485  -10.6554 H   0  0  0  0  0  0  0  0  0  0  0  0
   -5.6817  -16.4630  -12.3495 H   0  0  0  0  0  0  0  0  0  0  0  0
   -4.7856  -14.7125  -11.3676 H   0  0  0  0  0  0  0  0  0  0  0  0
   -3.3978  -15.7221  -11.6008 H   0  0  0  0  0  0  0  0  0  0  0  0
   -4.8675  -15.6120   -8.9141 H   0  0  0  0  0  0  0  0  0  0  0  0
   -3.4155  -17.4470   -8.9231 H   0  0  0  0  0  0  0  0  0  0  0  0
   -2.4938  -16.2093   -8.0846 H   0  0  0  0  0  0  0  0  0  0  0  0
   -2.1280  -16.5923   -9.7756 H   0  0  0  0  0  0  0  0  0  0  0  0
   -3.2798  -14.0017   -8.0276 H   0  0  0  0  0  0  0  0  0  0  0  0
   -1.6463  -14.4364  -10.2791 H   0  0  0  0  0  0  0  0  0  0  0  0
   -1.4485  -13.1820   -9.0725 H   0  0  0  0  0  0  0  0  0  0  0  0
   -2.1645  -12.8418  -11.8445 H   0  0  0  0  0  0  0  0  0  0  0  0
   -1.8945  -11.6185  -10.6093 H   0  0  0  0  0  0  0  0  0  0  0  0
   -4.4585  -12.8960  -11.5489 H   0  0  0  0  0  0  0  0  0  0  0  0
   -3.4483  -10.1591  -10.9552 H   0  0  0  0  0  0  0  0  0  0  0  0
   -5.2226  -11.5330  -13.0130 H   0  0  0  0  0  0  0  0  0  0  0  0
   -3.5157  -10.9304  -14.3391 H   0  0  0  0  0  0  0  0  0  0  0  0
   -5.4441   -9.4852  -14.2245 H   0  0  0  0  0  0  0  0  0  0  0  0
   -4.4826   -8.5780  -13.0903 H   0  0  0  0  0  0  0  0  0  0  0  0
   -7.0998  -10.0258  -12.4405 H   0  0  0  0  0  0  0  0  0  0  0  0
   -7.5154   -8.1960  -13.9908 H   0  0  0  0  0  0  0  0  0  0  0  0
   -6.7056   -7.0474  -12.9610 H   0  0  0  0  0  0  0  0  0  0  0  0
   -9.2276   -8.6688  -12.3125 H   0  0  0  0  0  0  0  0  0  0  0  0
   -9.4341   -6.8149  -13.6286 H   0  0  0  0  0  0  0  0  0  0  0  0
   -9.2955   -7.5330  -10.1557 H   0  0  0  0  0  0  0  0  0  0  0  0
   -7.8557   -6.6155  -10.5100 H   0  0  0  0  0  0  0  0  0  0  0  0
   -8.0836   -9.6328  -10.0961 H   0  0  0  0  0  0  0  0  0  0  0  0
   -7.3039   -8.4859   -9.0200 H   0  0  0  0  0  0  0  0  0  0  0  0
   -5.5612   -6.8360  -11.0631 H   0  0  0  0  0  0  0  0  0  0  0  0
   -4.1894   -7.9311  -10.9259 H   0  0  0  0  0  0  0  0  0  0  0  0
   -5.1407   -7.5134   -9.5025 H   0  0  0  0  0  0  0  0  0  0  0  0
   -6.2942  -11.0238  -10.4612 H   0  0  0  0  0  0  0  0  0  0  0  0
   -5.9556  -10.2674   -8.1980 H   0  0  0  0  0  0  0  0  0  0  0  0
   -4.4686   -9.4258   -8.5842 H   0  0  0  0  0  0  0  0  0  0  0  0
   -4.4643  -11.8345   -7.3947 H   0  0  0  0  0  0  0  0  0  0  0  0
   -3.1642  -11.2656   -8.4142 H   0  0  0  0  0  0  0  0  0  0  0  0
   -6.0089  -13.8520   -8.3388 H   0  0  0  0  0  0  0  0  0  0  0  0
   -6.2649  -13.7731  -10.0947 H   0  0  0  0  0  0  0  0  0  0  0  0
   -6.6152  -12.4068   -9.0553 H   0  0  0  0  0  0  0  0  0  0  0  0
  1  2  1  0  0  0  0
  1 80  1  0  0  0  0
  1 81  1  0  0  0  0
  1 82  1  0  0  0  0
  2  3  1  0  0  0  0
  2 53  1  0  0  0  0
  2 83  1  0  0  0  0
  3  4  2  0  0  0  0
  3  5  1  0  0  0  0
  5  6  1  0  0  0  0
  6  7  1  0  0  0  0
  6 84  1  0  0  0  0
  6 85  1  0  0  0  0
  7  8  1  0  0  0  0
  7 86  1  0  0  0  0
  7 87  1  0  0  0  0
  8  9  1  0  0  0  0
  8 88  1  0  0  0  0
  9 10  2  0  0  0  0
  9 11  1  0  0  0  0
 11 12  1  0  0  0  0
 11 89  1  0  0  0  0
 11 90  1  0  0  0  0
 12 13  1  0  0  0  0
 12 91  1  0  0  0  0
 12 92  1  0  0  0  0
 13 14  1  0  0  0  0
 13 93  1  0  0  0  0
 14 15  2  0  0  0  0
 16 18  1  0  0  0  0
 16 17  1  0  0  0  0
 16 14  1  0  0  0  0
 16 94  1  6  0  0  0
 17 95  1  0  0  0  0
 18 19  1  0  0  0  0
 18 20  1  0  0  0  0
 18 21  1  0  0  0  0
 19 96  1  0  0  0  0
 19 97  1  0  0  0  0
 19 98  1  0  0  0  0
 20 99  1  0  0  0  0
 20100  1  0  0  0  0
 20101  1  0  0  0  0
 21 22  1  0  0  0  0
 21102  1  0  0  0  0
 21103  1  0  0  0  0
 22 23  1  0  0  0  0
 23 24  2  0  0  0  0
 23 25  1  0  0  0  0
 23 26  1  0  0  0  0
 25104  1  0  0  0  0
 26 27  1  0  0  0  0
 27 28  2  0  0  0  0
 27 29  1  0  0  0  0
 27 30  1  0  0  0  0
 29105  1  0  0  0  0
 30 31  1  0  0  0  0
 31106  1  0  0  0  0
 31107  1  0  0  0  0
 32 33  1  0  0  0  0
 32 47  1  0  0  0  0
 32 31  1  0  0  0  0
 32108  1  6  0  0  0
 33 34  1  0  0  0  0
 34 45  1  0  0  0  0
 34 35  1  0  0  0  0
 34109  1  6  0  0  0
 35 36  1  0  0  0  0
 35 44  1  0  0  0  0
 36 37  2  0  0  0  0
 36110  1  0  0  0  0
 37 38  1  0  0  0  0
 38 39  1  0  0  0  0
 38 44  2  0  0  0  0
 39 40  1  0  0  0  0
 39 41  2  0  0  0  0
 40111  1  0  0  0  0
 40112  1  0  0  0  0
 41 42  1  0  0  0  0
 42 43  2  0  0  0  0
 42113  1  0  0  0  0
 43 44  1  0  0  0  0
 45 46  1  0  0  0  0
 45 47  1  0  0  0  0
 45114  1  1  0  0  0
 46115  1  0  0  0  0
 47 48  1  0  0  0  0
 47116  1  1  0  0  0
 48 49  1  0  0  0  0
 49 50  2  0  0  0  0
 49 51  1  0  0  0  0
 49 52  1  0  0  0  0
 51117  1  0  0  0  0
 52118  1  0  0  0  0
 53 54  1  0  0  0  0
 53 55  1  0  0  0  0
 53119  1  0  0  0  0
 54120  1  0  0  0  0
 55 56  1  0  0  0  0
 55121  1  0  0  0  0
 55122  1  0  0  0  0
 56123  1  0  0  0  0
 56124  1  0  0  0  0
 57 58  1  0  0  0  0
 57 56  1  0  0  0  0
 57125  1  1  0  0  0
 58126  1  0  0  0  0
 58127  1  0  0  0  0
 58128  1  0  0  0  0
 59 60  1  0  0  0  0
 59 78  1  0  0  0  0
 59 57  1  0  0  0  0
 59129  1  1  0  0  0
 60 61  1  0  0  0  0
 60130  1  0  0  0  0
 60131  1  0  0  0  0
 61 62  1  0  0  0  0
 61132  1  0  0  0  0
 61133  1  0  0  0  0
 62 63  1  0  0  0  0
 62 78  1  0  0  0  0
 62134  1  1  0  0  0
 63 64  1  0  0  0  0
 63 75  1  0  0  0  0
 63135  1  6  0  0  0
 64 66  1  0  0  0  0
 64 65  1  0  0  0  0
 64136  1  6  0  0  0
 65137  1  0  0  0  0
 66 67  1  0  0  0  0
 66138  1  0  0  0  0
 66139  1  0  0  0  0
 67 68  1  0  0  0  0
 67 73  1  0  0  0  0
 67140  1  6  0  0  0
 68 69  1  0  0  0  0
 68141  1  0  0  0  0
 68142  1  0  0  0  0
 69 71  1  0  0  0  0
 69 70  1  0  0  0  0
 69143  1  6  0  0  0
 70144  1  0  0  0  0
 71 72  1  0  0  0  0
 71145  1  0  0  0  0
 71146  1  0  0  0  0
 72 73  1  0  0  0  0
 72147  1  0  0  0  0
 72148  1  0  0  0  0
 73 75  1  0  0  0  0
 73 74  1  6  0  0  0
 74149  1  0  0  0  0
 74150  1  0  0  0  0
 74151  1  0  0  0  0
 75 76  1  0  0  0  0
 75152  1  1  0  0  0
 76 77  1  0  0  0  0
 76153  1  0  0  0  0
 76154  1  0  0  0  0
 77 78  1  0  0  0  0
 77155  1  0  0  0  0
 77156  1  0  0  0  0
 78 79  1  6  0  0  0
 79157  1  0  0  0  0
 79158  1  0  0  0  0
 79159  1  0  0  0  0
M  END
$$$$
