CHEBI:18168
 OpenBabel04242423403D

 61 60  0  0  0  0  0  0  0  0999 V2000
    2.6475    1.4038    5.8542 C   0  0  0  0  0  0  0  0  0  0  0  0
    3.1492    0.4788    6.9636 C   0  0  0  0  0  0  0  0  0  0  0  0
    2.1023   -0.5889    7.2826 C   0  0  0  0  0  0  0  0  0  0  0  0
    4.5311   -0.1285    6.6470 C   0  0  0  0  0  0  0  0  0  0  0  0
    4.5938   -0.9781    5.3721 C   0  0  0  0  0  0  0  0  0  0  0  0
    6.0105   -1.5137    5.1219 C   0  0  0  0  0  0  0  0  0  0  0  0
    6.0886   -2.4572    3.9042 C   0  0  0  0  0  0  0  0  0  0  0  0
    5.7792   -1.7349    2.5891 C   0  0  0  0  0  0  0  0  0  0  0  0
    7.4427   -3.1974    3.8354 C   0  0  0  0  0  0  0  0  0  0  0  0
    8.6747   -2.3022    3.6508 C   0  0  0  0  0  0  0  0  0  0  0  0
    9.9482   -3.1469    3.5191 C   0  0  0  0  0  0  0  0  0  0  0  0
   11.2511   -2.3239    3.3941 C   0  0  0  0  0  0  0  0  0  0  0  0
   12.4398   -3.2937    3.3617 C   0  0  0  0  0  0  0  0  0  0  0  0
   11.2295   -1.4073    2.1520 C   0  0  0  0  0  0  0  0  0  0  0  0
   12.5159   -0.6008    1.9409 C   0  0  0  0  0  0  0  0  0  0  0  0
   12.4222    0.3994    0.7768 C   0  0  0  0  0  0  0  0  0  0  0  0
   12.1435   -0.2355   -0.5970 C   0  0  0  0  0  0  0  0  0  0  0  0
   12.0297    0.8376   -1.6772 C   0  0  0  0  0  0  0  0  0  0  0  0
   13.2427   -1.2001   -0.9953 C   0  0  0  0  0  0  0  0  0  0  0  0
   14.4345   -1.0889   -0.7150 O   0  0  0  0  0  0  0  0  0  0  0  0
   12.8474   -2.3953   -1.8622 C   0  0  0  0  0  0  0  0  0  0  0  0
   11.7134   -2.6158   -2.2309 O   0  0  0  0  0  0  0  0  0  0  0  0
   13.9312   -3.1455   -2.1414 O   0  0  0  0  0  0  0  0  0  0  0  0
    1.7391    1.9267    6.1730 H   0  0  0  0  0  0  0  0  0  0  0  0
    2.4040    0.8518    4.9410 H   0  0  0  0  0  0  0  0  0  0  0  0
    3.3988    2.1616    5.6090 H   0  0  0  0  0  0  0  0  0  0  0  0
    3.2712    1.0922    7.8663 H   0  0  0  0  0  0  0  0  0  0  0  0
    1.9175   -1.2495    6.4301 H   0  0  0  0  0  0  0  0  0  0  0  0
    1.1476   -0.1241    7.5522 H   0  0  0  0  0  0  0  0  0  0  0  0
    2.4228   -1.2043    8.1297 H   0  0  0  0  0  0  0  0  0  0  0  0
    4.8512   -0.7390    7.5012 H   0  0  0  0  0  0  0  0  0  0  0  0
    5.2588    0.6891    6.5637 H   0  0  0  0  0  0  0  0  0  0  0  0
    4.2806   -0.3725    4.5168 H   0  0  0  0  0  0  0  0  0  0  0  0
    3.9010   -1.8227    5.4506 H   0  0  0  0  0  0  0  0  0  0  0  0
    6.3445   -2.0568    6.0150 H   0  0  0  0  0  0  0  0  0  0  0  0
    6.6944   -0.6669    4.9885 H   0  0  0  0  0  0  0  0  0  0  0  0
    5.3217   -3.2332    4.0337 H   0  0  0  0  0  0  0  0  0  0  0  0
    6.4289   -0.8669    2.4396 H   0  0  0  0  0  0  0  0  0  0  0  0
    4.7434   -1.3826    2.5651 H   0  0  0  0  0  0  0  0  0  0  0  0
    5.9075   -2.4097    1.7359 H   0  0  0  0  0  0  0  0  0  0  0  0
    7.4009   -3.9181    3.0080 H   0  0  0  0  0  0  0  0  0  0  0  0
    7.5665   -3.7911    4.7502 H   0  0  0  0  0  0  0  0  0  0  0  0
    8.7796   -1.6222    4.5030 H   0  0  0  0  0  0  0  0  0  0  0  0
    8.5438   -1.6926    2.7527 H   0  0  0  0  0  0  0  0  0  0  0  0
    9.8522   -3.8099    2.6494 H   0  0  0  0  0  0  0  0  0  0  0  0
   10.0262   -3.7972    4.4003 H   0  0  0  0  0  0  0  0  0  0  0  0
   11.3506   -1.6975    4.2899 H   0  0  0  0  0  0  0  0  0  0  0  0
   12.4548   -3.8684    2.4290 H   0  0  0  0  0  0  0  0  0  0  0  0
   12.3907   -4.0035    4.1945 H   0  0  0  0  0  0  0  0  0  0  0  0
   13.3920   -2.7624    3.4518 H   0  0  0  0  0  0  0  0  0  0  0  0
   10.4028   -0.6937    2.2418 H   0  0  0  0  0  0  0  0  0  0  0  0
   11.0277   -2.0233    1.2684 H   0  0  0  0  0  0  0  0  0  0  0  0
   13.3624   -1.2727    1.7687 H   0  0  0  0  0  0  0  0  0  0  0  0
   12.7412   -0.0405    2.8568 H   0  0  0  0  0  0  0  0  0  0  0  0
   13.3618    0.9658    0.7383 H   0  0  0  0  0  0  0  0  0  0  0  0
   11.6320    1.1268    1.0030 H   0  0  0  0  0  0  0  0  0  0  0  0
   11.1932   -0.7766   -0.5489 H   0  0  0  0  0  0  0  0  0  0  0  0
   12.9749    1.3766   -1.8054 H   0  0  0  0  0  0  0  0  0  0  0  0
   11.2509    1.5651   -1.4264 H   0  0  0  0  0  0  0  0  0  0  0  0
   11.7736    0.3909   -2.6442 H   0  0  0  0  0  0  0  0  0  0  0  0
   14.7232   -2.7337   -1.7198 H   0  0  0  0  0  0  0  0  0  0  0  0
  1  2  1  0  0  0  0
  1 24  1  0  0  0  0
  1 25  1  0  0  0  0
  1 26  1  0  0  0  0
  2  3  1  0  0  0  0
  2  4  1  0  0  0  0
  2 27  1  0  0  0  0
  3 28  1  0  0  0  0
  3 29  1  0  0  0  0
  3 30  1  0  0  0  0
  4  5  1  0  0  0  0
  4 31  1  0  0  0  0
  4 32  1  0  0  0  0
  5  6  1  0  0  0  0
  5 33  1  0  0  0  0
  5 34  1  0  0  0  0
  6  7  1  0  0  0  0
  6 35  1  0  0  0  0
  6 36  1  0  0  0  0
  7  8  1  0  0  0  0
  7  9  1  0  0  0  0
  7 37  1  0  0  0  0
  8 38  1  0  0  0  0
  8 39  1  0  0  0  0
  8 40  1  0  0  0  0
  9 10  1  0  0  0  0
  9 41  1  0  0  0  0
  9 42  1  0  0  0  0
 10 11  1  0  0  0  0
 10 43  1  0  0  0  0
 10 44  1  0  0  0  0
 11 12  1  0  0  0  0
 11 45  1  0  0  0  0
 11 46  1  0  0  0  0
 12 13  1  0  0  0  0
 12 14  1  0  0  0  0
 12 47  1  0  0  0  0
 13 48  1  0  0  0  0
 13 49  1  0  0  0  0
 13 50  1  0  0  0  0
 14 15  1  0  0  0  0
 14 51  1  0  0  0  0
 14 52  1  0  0  0  0
 15 16  1  0  0  0  0
 15 53  1  0  0  0  0
 15 54  1  0  0  0  0
 16 17  1  0  0  0  0
 16 55  1  0  0  0  0
 16 56  1  0  0  0  0
 17 18  1  0  0  0  0
 17 19  1  0  0  0  0
 17 57  1  0  0  0  0
 18 58  1  0  0  0  0
 18 59  1  0  0  0  0
 18 60  1  0  0  0  0
 19 20  2  0  0  0  0
 19 21  1  0  0  0  0
 21 22  2  0  0  0  0
 21 23  1  0  0  0  0
 23 61  1  0  0  0  0
M  END
$$$$
