CHEBI:9468
 OpenBabel04242411393D

 43 43  0  0  0  0  0  0  0  0999 V2000
    3.0451    3.4012   -1.6956 C   0  0  0  0  0  0  0  0  0  0  0  0
    2.5408    3.6964   -0.2911 C   0  0  0  0  0  0  0  0  0  0  0  0
    3.1426    2.7871    0.7828 C   0  0  0  0  0  0  0  0  0  0  0  0
    4.6664    2.8864    0.8744 C   0  0  0  0  0  0  0  0  0  0  0  0
    5.1418    2.0865    2.0038 N   0  0  0  0  0  0  0  0  0  0  0  0
    6.5205    2.1024    2.2667 C   0  0  0  0  0  0  0  0  0  0  0  0
    6.9595    1.9496    3.5895 C   0  0  0  0  0  0  0  0  0  0  0  0
    8.3226    1.9276    3.9031 C   0  0  0  0  0  0  0  0  0  0  0  0
    9.2763    2.0318    2.8876 C   0  0  0  0  0  0  0  0  0  0  0  0
   10.7110    2.0314    3.2621 C   0  0  0  0  0  0  0  0  0  0  0  0
   11.1301    1.6152    4.3290 O   0  0  0  0  0  0  0  0  0  0  0  0
   11.4464    2.6237    2.2869 O   0  0  0  0  0  0  0  0  0  0  0  0
   12.8519    2.7513    2.5740 C   0  0  0  0  0  0  0  0  0  0  0  0
   13.1065    3.9174    3.5458 C   0  0  0  0  0  0  0  0  0  0  0  0
   14.5295    4.1793    3.8394 N   0  0  0  0  0  0  0  0  0  0  0  0
   14.6410    5.3759    4.6809 C   0  0  0  0  0  0  0  0  0  0  0  0
   15.1536    3.0433    4.5243 C   0  0  0  0  0  0  0  0  0  0  0  0
    8.8563    2.1174    1.5585 C   0  0  0  0  0  0  0  0  0  0  0  0
    7.4899    2.1379    1.2561 C   0  0  0  0  0  0  0  0  0  0  0  0
    2.4746    3.9789   -2.4298 H   0  0  0  0  0  0  0  0  0  0  0  0
    2.9375    2.3397   -1.9393 H   0  0  0  0  0  0  0  0  0  0  0  0
    4.0980    3.6779   -1.8070 H   0  0  0  0  0  0  0  0  0  0  0  0
    1.4511    3.5755   -0.2764 H   0  0  0  0  0  0  0  0  0  0  0  0
    2.7462    4.7452   -0.0466 H   0  0  0  0  0  0  0  0  0  0  0  0
    2.8549    1.7463    0.5877 H   0  0  0  0  0  0  0  0  0  0  0  0
    2.6972    3.0536    1.7499 H   0  0  0  0  0  0  0  0  0  0  0  0
    4.9604    3.9342    1.0117 H   0  0  0  0  0  0  0  0  0  0  0  0
    5.0990    2.5194   -0.0610 H   0  0  0  0  0  0  0  0  0  0  0  0
    4.6077    2.2728    2.8501 H   0  0  0  0  0  0  0  0  0  0  0  0
    6.2387    1.8599    4.3987 H   0  0  0  0  0  0  0  0  0  0  0  0
    8.6327    1.8332    4.9417 H   0  0  0  0  0  0  0  0  0  0  0  0
   13.3528    2.9473    1.6193 H   0  0  0  0  0  0  0  0  0  0  0  0
   13.2332    1.7954    2.9490 H   0  0  0  0  0  0  0  0  0  0  0  0
   12.5459    3.7614    4.4761 H   0  0  0  0  0  0  0  0  0  0  0  0
   12.6654    4.8137    3.0881 H   0  0  0  0  0  0  0  0  0  0  0  0
   14.2182    6.2481    4.1702 H   0  0  0  0  0  0  0  0  0  0  0  0
   15.6925    5.6103    4.8809 H   0  0  0  0  0  0  0  0  0  0  0  0
   14.1265    5.2550    5.6417 H   0  0  0  0  0  0  0  0  0  0  0  0
   15.2222    2.1751    3.8615 H   0  0  0  0  0  0  0  0  0  0  0  0
   14.6061    2.7523    5.4281 H   0  0  0  0  0  0  0  0  0  0  0  0
   16.1842    3.2831    4.8102 H   0  0  0  0  0  0  0  0  0  0  0  0
    9.5776    2.1546    0.7461 H   0  0  0  0  0  0  0  0  0  0  0  0
    7.2040    2.1682    0.2092 H   0  0  0  0  0  0  0  0  0  0  0  0
  1  2  1  0  0  0  0
  1 20  1  0  0  0  0
  1 21  1  0  0  0  0
  1 22  1  0  0  0  0
  2  3  1  0  0  0  0
  2 23  1  0  0  0  0
  2 24  1  0  0  0  0
  3  4  1  0  0  0  0
  3 25  1  0  0  0  0
  3 26  1  0  0  0  0
  4  5  1  0  0  0  0
  4 27  1  0  0  0  0
  4 28  1  0  0  0  0
  5  6  1  0  0  0  0
  5 29  1  0  0  0  0
  6  7  1  0  0  0  0
  6 19  2  0  0  0  0
  7  8  2  0  0  0  0
  7 30  1  0  0  0  0
  8  9  1  0  0  0  0
  8 31  1  0  0  0  0
  9 10  1  0  0  0  0
  9 18  2  0  0  0  0
 10 11  2  0  0  0  0
 10 12  1  0  0  0  0
 12 13  1  0  0  0  0
 13 14  1  0  0  0  0
 13 32  1  0  0  0  0
 13 33  1  0  0  0  0
 14 15  1  0  0  0  0
 14 34  1  0  0  0  0
 14 35  1  0  0  0  0
 15 16  1  0  0  0  0
 15 17  1  0  0  0  0
 16 36  1  0  0  0  0
 16 37  1  0  0  0  0
 16 38  1  0  0  0  0
 17 39  1  0  0  0  0
 17 40  1  0  0  0  0
 17 41  1  0  0  0  0
 18 19  1  0  0  0  0
 18 42  1  0  0  0  0
 19 43  1  0  0  0  0
M  END
$$$$
