CHEBI:17205
 OpenBabel04242416013D

 18 17  0  0  0  0  0  0  0  0999 V2000
    0.9675    0.5934   -0.5780 O   0  0  0  0  0  0  0  0  0  0  0  0
    2.1704    0.2366   -0.4013 C   0  0  0  0  0  0  0  0  0  0  0  0
    3.1598    0.3967   -1.1683 O   0  5  0  0  0  0  0  0  0  0  0  0
    2.4229   -0.4955    0.9194 C   0  0  0  0  0  0  0  0  0  0  0  0
    3.8719   -0.9096    1.1479 C   0  0  0  0  0  0  0  0  0  0  0  0
    4.0399   -1.6871    2.4292 C   0  0  0  0  0  0  0  0  0  0  0  0
    4.8533   -1.3217    3.4337 C   0  0  0  0  0  0  0  0  0  0  0  0
    4.9944   -2.1581    4.6651 C   0  0  0  0  0  0  0  0  0  0  0  0
    4.3794   -3.2130    4.8287 O   0  0  0  0  0  0  0  0  0  0  0  0
    5.9601   -1.7023    5.7875 C   0  0  0  0  0  0  0  0  0  0  0  0
    6.0466   -2.4206    6.8372 O   0  0  0  0  0  0  0  0  0  0  0  0
    6.6086   -0.6250    5.5669 O   0  5  0  0  0  0  0  0  0  0  0  0
    1.7760   -1.3822    0.9316 H   0  0  0  0  0  0  0  0  0  0  0  0
    2.0920    0.1586    1.7361 H   0  0  0  0  0  0  0  0  0  0  0  0
    4.5170   -0.0223    1.1488 H   0  0  0  0  0  0  0  0  0  0  0  0
    4.2124   -1.5449    0.3209 H   0  0  0  0  0  0  0  0  0  0  0  0
    3.4693   -2.6098    2.5138 H   0  0  0  0  0  0  0  0  0  0  0  0
    5.4484   -0.4161    3.3978 H   0  0  0  0  0  0  0  0  0  0  0  0
  1  2  2  0  0  0  0
  2  3  1  0  0  0  0
  2  4  1  0  0  0  0
  4  5  1  0  0  0  0
  4 13  1  0  0  0  0
  4 14  1  0  0  0  0
  5  6  1  0  0  0  0
  5 15  1  0  0  0  0
  5 16  1  0  0  0  0
  6  7  2  0  0  0  0
  6 17  1  0  0  0  0
  7  8  1  0  0  0  0
  7 18  1  0  0  0  0
  8  9  2  0  0  0  0
  8 10  1  0  0  0  0
 10 11  2  0  0  0  0
 10 12  1  0  0  0  0
M  CHG  2   3  -1  12  -1
M  END
$$$$
