CHEBI:18116
 OpenBabel04242423333D

 34 35  0  0  1  0  0  0  0  0999 V2000
   -3.6237    1.3148   -1.7946 O   0  0  0  0  0  0  0  0  0  0  0  0
   -2.8458    0.4624   -1.3794 C   0  0  0  0  0  0  0  0  0  0  0  0
   -3.1608   -0.3601   -0.3347 N   0  0  0  0  0  0  0  0  0  0  0  0
   -2.3184   -1.3184    0.1539 C   0  0  0  0  0  0  0  0  0  0  0  0
   -1.1063   -1.5317   -0.3786 C   0  0  0  0  0  0  0  0  0  0  0  0
   -0.1444   -2.5564    0.1458 C   0  0  2  0  0  0  0  0  0  0  0  0
    1.0820   -1.9183    0.5483 O   0  0  0  0  0  0  0  0  0  0  0  0
    2.1727   -2.8240    0.2712 C   0  0  2  0  0  0  0  0  0  0  0  0
    3.1479   -2.1700   -0.7146 C   0  0  0  0  0  0  0  0  0  0  0  0
    4.2825   -2.9743   -1.0134 O   0  0  0  0  0  0  0  0  0  0  0  0
    5.1499   -3.5697    0.1908 P   0  0  0  0  0  0  0  0  0  0  0  0
    4.5369   -4.7139    0.9237 O   0  0  0  0  0  0  0  0  0  0  0  0
    6.5497   -3.8993   -0.4943 O   0  0  0  0  0  0  0  0  0  0  0  0
    5.5111   -2.3086    1.0939 O   0  0  0  0  0  0  0  0  0  0  0  0
    1.5712   -4.1254   -0.2662 C   0  0  1  0  0  0  0  0  0  0  0  0
    1.3169   -5.0478    0.8114 O   0  0  0  0  0  0  0  0  0  0  0  0
    0.2344   -3.6718   -0.8324 C   0  0  1  0  0  0  0  0  0  0  0  0
   -0.7169   -4.7348   -0.8436 O   0  0  0  0  0  0  0  0  0  0  0  0
   -0.7129   -0.6893   -1.5394 C   0  0  0  0  0  0  0  0  0  0  0  0
    0.3496   -0.8424   -2.1336 O   0  0  0  0  0  0  0  0  0  0  0  0
   -1.6122    0.2665   -1.9278 N   0  0  0  0  0  0  0  0  0  0  0  0
   -4.0748   -0.2155    0.0797 H   0  0  0  0  0  0  0  0  0  0  0  0
   -2.6894   -1.8895    1.0001 H   0  0  0  0  0  0  0  0  0  0  0  0
   -0.5687   -3.0079    1.0535 H   0  0  0  0  0  0  0  0  0  0  0  0
    2.6710   -2.9966    1.2298 H   0  0  0  0  0  0  0  0  0  0  0  0
    3.4870   -1.2022   -0.3289 H   0  0  0  0  0  0  0  0  0  0  0  0
    2.6440   -1.9562   -1.6621 H   0  0  0  0  0  0  0  0  0  0  0  0
    6.5090   -4.7049   -1.0398 H   0  0  0  0  0  0  0  0  0  0  0  0
    6.0673   -2.5544    1.8541 H   0  0  0  0  0  0  0  0  0  0  0  0
    2.1865   -4.6530   -1.0004 H   0  0  0  0  0  0  0  0  0  0  0  0
    2.1961   -5.2971    1.1674 H   0  0  0  0  0  0  0  0  0  0  0  0
    0.3639   -3.3070   -1.8553 H   0  0  0  0  0  0  0  0  0  0  0  0
   -0.4467   -5.3241   -0.1070 H   0  0  0  0  0  0  0  0  0  0  0  0
   -1.3624    0.8462   -2.7126 H   0  0  0  0  0  0  0  0  0  0  0  0
  1  2  2  0  0  0  0
  2  3  1  0  0  0  0
  2 21  1  0  0  0  0
  3  4  1  0  0  0  0
  3 22  1  0  0  0  0
  4  5  2  0  0  0  0
  4 23  1  0  0  0  0
  5  6  1  0  0  0  0
  5 19  1  0  0  0  0
  6  7  1  0  0  0  0
  6 17  1  0  0  0  0
  6 24  1  1  0  0  0
  7  8  1  0  0  0  0
  8  9  1  0  0  0  0
  8 15  1  0  0  0  0
  8 25  1  1  0  0  0
  9 10  1  0  0  0  0
  9 26  1  0  0  0  0
  9 27  1  0  0  0  0
 10 11  1  0  0  0  0
 11 12  2  0  0  0  0
 11 13  1  0  0  0  0
 11 14  1  0  0  0  0
 13 28  1  0  0  0  0
 14 29  1  0  0  0  0
 15 16  1  0  0  0  0
 15 17  1  0  0  0  0
 15 30  1  6  0  0  0
 16 31  1  0  0  0  0
 17 18  1  0  0  0  0
 17 32  1  6  0  0  0
 18 33  1  0  0  0  0
 19 20  2  0  0  0  0
 19 21  1  0  0  0  0
 21 34  1  0  0  0  0
M  END
$$$$
