CHEBI:18012
 OpenBabel04242423243D

 12 11  0  0  0  0  0  0  0  0999 V2000
    4.4805   -1.3913   -0.1900 O   0  0  0  0  0  0  0  0  0  0  0  0
    3.3526   -0.9298   -0.2248 C   0  0  0  0  0  0  0  0  0  0  0  0
    2.2752   -1.5575    0.2801 O   0  0  0  0  0  0  0  0  0  0  0  0
    3.0150    0.3706   -0.8215 C   0  0  0  0  0  0  0  0  0  0  0  0
    3.9969    1.0919   -1.3826 C   0  0  0  0  0  0  0  0  0  0  0  0
    3.6596    2.3923   -1.9793 C   0  0  0  0  0  0  0  0  0  0  0  0
    2.5316    2.8531   -2.0161 O   0  0  0  0  0  0  0  0  0  0  0  0
    4.7378    3.0210   -2.4814 O   0  0  0  0  0  0  0  0  0  0  0  0
    1.4256   -1.0884    0.1868 H   0  0  0  0  0  0  0  0  0  0  0  0
    1.9912    0.7221   -0.7978 H   0  0  0  0  0  0  0  0  0  0  0  0
    5.0206    0.7403   -1.4063 H   0  0  0  0  0  0  0  0  0  0  0  0
    5.5875    2.5526   -2.3861 H   0  0  0  0  0  0  0  0  0  0  0  0
  1  2  2  0  0  0  0
  2  3  1  0  0  0  0
  2  4  1  0  0  0  0
  3  9  1  0  0  0  0
  4  5  2  0  0  0  0
  4 10  1  0  0  0  0
  5  6  1  0  0  0  0
  5 11  1  0  0  0  0
  6  7  2  0  0  0  0
  6  8  1  0  0  0  0
  8 12  1  0  0  0  0
M  END
$$$$
