CHEBI:16703
 OpenBabel04242415063D

 66 68  0  0  1  0  0  0  0  0999 V2000
    6.3865   -3.4955    4.2675 O   0  0  0  0  0  0  0  0  0  0  0  0
    6.7546   -4.5124    3.3332 C   0  0  0  0  0  0  0  0  0  0  0  0
    6.7298   -3.9398    1.9218 C   0  0  1  0  0  0  0  0  0  0  0  0
    7.6252   -2.8089    1.8285 O   0  0  0  0  0  0  0  0  0  0  0  0
    8.2027   -2.8002    0.5017 C   0  0  1  0  0  0  0  0  0  0  0  0
    7.8826   -1.4657   -0.2224 C   0  0  0  0  0  0  0  0  0  0  0  0
    8.3377   -0.3106    0.4884 O   0  0  0  0  0  0  0  0  0  0  0  0
    9.6096   -3.1093    0.5337 O   0  0  0  0  0  0  0  0  0  0  0  0
   10.3702   -2.3180    1.4503 C   0  0  0  0  0  0  0  0  0  0  0  0
   11.8588   -2.6777    1.4009 C   0  0  1  0  0  0  0  0  0  0  0  0
   12.0996   -4.0217    1.8864 O   0  0  0  0  0  0  0  0  0  0  0  0
   12.9056   -4.7075    0.8838 C   0  0  1  0  0  0  0  0  0  0  0  0
   13.8804   -5.6426    1.6267 C   0  0  0  0  0  0  0  0  0  0  0  0
   13.1754   -6.6752    2.3289 O   0  0  0  0  0  0  0  0  0  0  0  0
   11.9528   -5.4084    0.0790 O   0  0  0  0  0  0  0  0  0  0  0  0
   12.4713   -6.3336   -0.8772 C   0  0  0  0  0  0  0  0  0  0  0  0
   11.2893   -6.8952   -1.6656 C   0  0  1  0  0  0  0  0  0  0  0  0
   10.6512   -5.8241   -2.4100 O   0  0  0  0  0  0  0  0  0  0  0  0
   10.5523   -6.2371   -3.7717 C   0  0  2  0  0  0  0  0  0  0  0  0
   11.6840   -5.7227   -4.4862 O   0  0  0  0  0  0  0  0  0  0  0  0
    9.2433   -5.7521   -4.4176 C   0  0  0  0  0  0  0  0  0  0  0  0
    9.2003   -6.0308   -5.8184 O   0  0  0  0  0  0  0  0  0  0  0  0
   10.6711   -7.7633   -3.7608 C   0  0  1  0  0  0  0  0  0  0  0  0
   11.0894   -8.3023   -5.0149 O   0  0  0  0  0  0  0  0  0  0  0  0
   11.7150   -7.9570   -2.6766 C   0  0  2  0  0  0  0  0  0  0  0  0
   11.6784   -9.2722   -2.1385 O   0  0  0  0  0  0  0  0  0  0  0  0
   13.6288   -3.5588    0.1594 C   0  0  1  0  0  0  0  0  0  0  0  0
   14.2625   -3.8598   -1.0747 O   0  0  0  0  0  0  0  0  0  0  0  0
   12.4809   -2.5782    0.0064 C   0  0  2  0  0  0  0  0  0  0  0  0
   12.9771   -1.2798   -0.3100 O   0  0  0  0  0  0  0  0  0  0  0  0
    7.5099   -3.9554   -0.2663 C   0  0  1  0  0  0  0  0  0  0  0  0
    8.2914   -4.5725   -1.2855 O   0  0  0  0  0  0  0  0  0  0  0  0
    7.1783   -4.9216    0.8552 C   0  0  2  0  0  0  0  0  0  0  0  0
    6.1521   -5.8308    0.4823 O   0  0  0  0  0  0  0  0  0  0  0  0
    6.9247   -2.7150    4.0325 H   0  0  0  0  0  0  0  0  0  0  0  0
    6.0495   -5.3427    3.4360 H   0  0  0  0  0  0  0  0  0  0  0  0
    7.7556   -4.8594    3.6067 H   0  0  0  0  0  0  0  0  0  0  0  0
    5.7202   -3.5602    1.7147 H   0  0  0  0  0  0  0  0  0  0  0  0
    8.3485   -1.4462   -1.2124 H   0  0  0  0  0  0  0  0  0  0  0  0
    6.7976   -1.3553   -0.3273 H   0  0  0  0  0  0  0  0  0  0  0  0
    7.8618    0.4564    0.1223 H   0  0  0  0  0  0  0  0  0  0  0  0
    9.9976   -2.4890    2.4654 H   0  0  0  0  0  0  0  0  0  0  0  0
   10.2846   -1.2597    1.2018 H   0  0  0  0  0  0  0  0  0  0  0  0
   12.3838   -2.0032    2.0898 H   0  0  0  0  0  0  0  0  0  0  0  0
   14.5833   -6.1260    0.9419 H   0  0  0  0  0  0  0  0  0  0  0  0
   14.4541   -5.0848    2.3743 H   0  0  0  0  0  0  0  0  0  0  0  0
   12.2898   -6.3079    2.5196 H   0  0  0  0  0  0  0  0  0  0  0  0
   12.9957   -7.1494   -0.3718 H   0  0  0  0  0  0  0  0  0  0  0  0
   13.1514   -5.8279   -1.5643 H   0  0  0  0  0  0  0  0  0  0  0  0
   10.5377   -7.2850   -0.9677 H   0  0  0  0  0  0  0  0  0  0  0  0
   11.4064   -4.8545   -4.8326 H   0  0  0  0  0  0  0  0  0  0  0  0
    9.1480   -4.6671   -4.3006 H   0  0  0  0  0  0  0  0  0  0  0  0
    8.3702   -6.2040   -3.9350 H   0  0  0  0  0  0  0  0  0  0  0  0
    9.4294   -6.9726   -5.9436 H   0  0  0  0  0  0  0  0  0  0  0  0
    9.7325   -8.2519   -3.4729 H   0  0  0  0  0  0  0  0  0  0  0  0
   11.7896   -7.6941   -5.3360 H   0  0  0  0  0  0  0  0  0  0  0  0
   12.7264   -7.7820   -3.0627 H   0  0  0  0  0  0  0  0  0  0  0  0
   11.7729   -9.8841   -2.8933 H   0  0  0  0  0  0  0  0  0  0  0  0
   14.3989   -3.1193    0.8081 H   0  0  0  0  0  0  0  0  0  0  0  0
   14.4490   -2.9964   -1.4919 H   0  0  0  0  0  0  0  0  0  0  0  0
   11.8107   -2.8906   -0.8027 H   0  0  0  0  0  0  0  0  0  0  0  0
   12.2046   -0.7014   -0.4463 H   0  0  0  0  0  0  0  0  0  0  0  0
    6.5750   -3.6264   -0.7373 H   0  0  0  0  0  0  0  0  0  0  0  0
    9.2174   -4.6046   -0.9537 H   0  0  0  0  0  0  0  0  0  0  0  0
    8.0609   -5.4973    1.1572 H   0  0  0  0  0  0  0  0  0  0  0  0
    6.4475   -6.2516   -0.3477 H   0  0  0  0  0  0  0  0  0  0  0  0
  1  2  1  0  0  0  0
  1 35  1  0  0  0  0
  2 36  1  0  0  0  0
  2 37  1  0  0  0  0
  3  4  1  0  0  0  0
  3 33  1  0  0  0  0
  3  2  1  0  0  0  0
  3 38  1  6  0  0  0
  4  5  1  0  0  0  0
  5 31  1  0  0  0  0
  5  8  1  1  0  0  0
  5  6  1  0  0  0  0
  6  7  1  0  0  0  0
  6 39  1  0  0  0  0
  6 40  1  0  0  0  0
  7 41  1  0  0  0  0
  8  9  1  0  0  0  0
  9 42  1  0  0  0  0
  9 43  1  0  0  0  0
 10 11  1  0  0  0  0
 10 29  1  0  0  0  0
 10  9  1  0  0  0  0
 10 44  1  1  0  0  0
 11 12  1  0  0  0  0
 12 27  1  0  0  0  0
 12 15  1  6  0  0  0
 12 13  1  0  0  0  0
 13 14  1  0  0  0  0
 13 45  1  0  0  0  0
 13 46  1  0  0  0  0
 14 47  1  0  0  0  0
 15 16  1  0  0  0  0
 16 48  1  0  0  0  0
 16 49  1  0  0  0  0
 17 18  1  0  0  0  0
 17 25  1  0  0  0  0
 17 16  1  0  0  0  0
 17 50  1  1  0  0  0
 18 19  1  0  0  0  0
 19 20  1  6  0  0  0
 19 21  1  0  0  0  0
 19 23  1  0  0  0  0
 20 51  1  0  0  0  0
 21 22  1  0  0  0  0
 21 52  1  0  0  0  0
 21 53  1  0  0  0  0
 22 54  1  0  0  0  0
 23 24  1  0  0  0  0
 23 25  1  0  0  0  0
 23 55  1  1  0  0  0
 24 56  1  0  0  0  0
 25 26  1  0  0  0  0
 25 57  1  6  0  0  0
 26 58  1  0  0  0  0
 27 28  1  0  0  0  0
 27 29  1  0  0  0  0
 27 59  1  1  0  0  0
 28 60  1  0  0  0  0
 29 30  1  0  0  0  0
 29 61  1  6  0  0  0
 30 62  1  0  0  0  0
 31 32  1  0  0  0  0
 31 33  1  0  0  0  0
 31 63  1  6  0  0  0
 32 64  1  0  0  0  0
 33 34  1  0  0  0  0
 33 65  1  1  0  0  0
 34 66  1  0  0  0  0
M  END
$$$$
