CHEBI:17594
 OpenBabel04242416533D

 14 14  0  0  0  0  0  0  0  0999 V2000
   -2.7425   -0.0747    0.0048 O   0  0  0  0  0  0  0  0  0  0  0  0
   -1.3802   -0.0168    0.0040 C   0  0  0  0  0  0  0  0  0  0  0  0
   -0.7062    1.2024    0.0013 C   0  0  0  0  0  0  0  0  0  0  0  0
    0.6908    1.2160   -0.0002 C   0  0  0  0  0  0  0  0  0  0  0  0
    1.3883    0.0100    0.0011 C   0  0  0  0  0  0  0  0  0  0  0  0
    2.7514   -0.0214   -0.0008 O   0  0  0  0  0  0  0  0  0  0  0  0
    0.7130   -1.2060    0.0043 C   0  0  0  0  0  0  0  0  0  0  0  0
   -0.6814   -1.2195    0.0057 C   0  0  0  0  0  0  0  0  0  0  0  0
   -3.0924    0.8309    0.0010 H   0  0  0  0  0  0  0  0  0  0  0  0
   -1.2471    2.1432    0.0003 H   0  0  0  0  0  0  0  0  0  0  0  0
    1.2134    2.1671   -0.0023 H   0  0  0  0  0  0  0  0  0  0  0  0
    3.0837    0.8908   -0.0050 H   0  0  0  0  0  0  0  0  0  0  0  0
    1.2689   -2.1388    0.0054 H   0  0  0  0  0  0  0  0  0  0  0  0
   -1.2192   -2.1629    0.0080 H   0  0  0  0  0  0  0  0  0  0  0  0
  1  2  1  0  0  0  0
  1  9  1  0  0  0  0
  2  3  1  0  0  0  0
  2  8  2  0  0  0  0
  3  4  2  0  0  0  0
  3 10  1  0  0  0  0
  4  5  1  0  0  0  0
  4 11  1  0  0  0  0
  5  6  1  0  0  0  0
  5  7  2  0  0  0  0
  6 12  1  0  0  0  0
  7  8  1  0  0  0  0
  7 13  1  0  0  0  0
  8 14  1  0  0  0  0
M  END
$$$$
