CHEBI:17533
 OpenBabel04242416463D

 24 23  0  0  1  0  0  0  0  0999 V2000
    5.1245   -3.9976   -4.0115 C   0  0  0  0  0  0  0  0  0  0  0  0
    5.8460   -3.1511   -2.9981 C   0  0  0  0  0  0  0  0  0  0  0  0
    7.0289   -2.8555   -3.1089 O   0  0  0  0  0  0  0  0  0  0  0  0
    5.0558   -2.6496   -1.9923 N   0  0  0  0  0  0  0  0  0  0  0  0
    5.5626   -1.9115   -0.8161 C   0  0  1  0  0  0  0  0  0  0  0  0
    6.6882   -2.6608   -0.0736 C   0  0  0  0  0  0  0  0  0  0  0  0
    7.1832   -2.0151    1.2240 C   0  0  0  0  0  0  0  0  0  0  0  0
    6.0677   -1.7544    2.2017 C   0  0  0  0  0  0  0  0  0  0  0  0
    5.5762   -2.6210    2.9070 O   0  0  0  0  0  0  0  0  0  0  0  0
    5.5959   -0.4903    2.1698 O   0  0  0  0  0  0  0  0  0  0  0  0
    5.9269   -0.4402   -1.1007 C   0  0  0  0  0  0  0  0  0  0  0  0
    6.2252    0.3522   -0.2109 O   0  0  0  0  0  0  0  0  0  0  0  0
    5.8636   -0.0672   -2.3930 O   0  0  0  0  0  0  0  0  0  0  0  0
    5.3624   -3.6246   -5.0123 H   0  0  0  0  0  0  0  0  0  0  0  0
    4.0400   -3.9463   -3.8816 H   0  0  0  0  0  0  0  0  0  0  0  0
    5.4492   -5.0365   -3.9182 H   0  0  0  0  0  0  0  0  0  0  0  0
    4.1086   -3.0062   -1.9176 H   0  0  0  0  0  0  0  0  0  0  0  0
    4.6829   -1.8583   -0.1618 H   0  0  0  0  0  0  0  0  0  0  0  0
    7.5619   -2.7779   -0.7240 H   0  0  0  0  0  0  0  0  0  0  0  0
    6.3361   -3.6759    0.1529 H   0  0  0  0  0  0  0  0  0  0  0  0
    7.7493   -1.0972    1.0365 H   0  0  0  0  0  0  0  0  0  0  0  0
    7.8976   -2.6856    1.7180 H   0  0  0  0  0  0  0  0  0  0  0  0
    6.0179    0.0946    1.4920 H   0  0  0  0  0  0  0  0  0  0  0  0
    5.7179   -0.8401   -2.9730 H   0  0  0  0  0  0  0  0  0  0  0  0
  1  2  1  0  0  0  0
  1 14  1  0  0  0  0
  1 15  1  0  0  0  0
  1 16  1  0  0  0  0
  2  3  2  0  0  0  0
  2  4  1  0  0  0  0
  4  5  1  0  0  0  0
  4 17  1  0  0  0  0
  5  6  1  0  0  0  0
  5 11  1  0  0  0  0
  5 18  1  1  0  0  0
  6  7  1  0  0  0  0
  6 19  1  0  0  0  0
  6 20  1  0  0  0  0
  7  8  1  0  0  0  0
  7 21  1  0  0  0  0
  7 22  1  0  0  0  0
  8  9  2  0  0  0  0
  8 10  1  0  0  0  0
 10 23  1  0  0  0  0
 11 12  2  0  0  0  0
 11 13  1  0  0  0  0
 13 24  1  0  0  0  0
M  END
$$$$
