CHEBI:15741
 OpenBabel04242413113D

 14 13  0  0  0  0  0  0  0  0999 V2000
    1.4907    0.5789   -1.1442 O   0  0  0  0  0  0  0  0  0  0  0  0
    2.1566   -0.0636   -0.3458 C   0  0  0  0  0  0  0  0  0  0  0  0
    2.1416   -1.4115   -0.3074 O   0  0  0  0  0  0  0  0  0  0  0  0
    3.0803    0.5764    0.6588 C   0  0  0  0  0  0  0  0  0  0  0  0
    4.5347    0.4826    0.2139 C   0  0  0  0  0  0  0  0  0  0  0  0
    5.0918   -0.8835    0.5168 C   0  0  0  0  0  0  0  0  0  0  0  0
    4.4080   -1.8235    0.9019 O   0  0  0  0  0  0  0  0  0  0  0  0
    6.4157   -0.9849    0.2927 O   0  0  0  0  0  0  0  0  0  0  0  0
    2.7791   -1.8156    0.3320 H   0  0  0  0  0  0  0  0  0  0  0  0
    2.9017    0.1393    1.6476 H   0  0  0  0  0  0  0  0  0  0  0  0
    2.7918    1.6323    0.7320 H   0  0  0  0  0  0  0  0  0  0  0  0
    5.1240    1.2168    0.7740 H   0  0  0  0  0  0  0  0  0  0  0  0
    4.6358    0.6749   -0.8592 H   0  0  0  0  0  0  0  0  0  0  0  0
    6.8341   -0.1691   -0.0454 H   0  0  0  0  0  0  0  0  0  0  0  0
  1  2  2  0  0  0  0
  2  3  1  0  0  0  0
  2  4  1  0  0  0  0
  3  9  1  0  0  0  0
  4  5  1  0  0  0  0
  4 10  1  0  0  0  0
  4 11  1  0  0  0  0
  5  6  1  0  0  0  0
  5 12  1  0  0  0  0
  5 13  1  0  0  0  0
  6  7  2  0  0  0  0
  6  8  1  0  0  0  0
  8 14  1  0  0  0  0
M  END
$$$$
