CHEBI:17084
 OpenBabel04242415503D

 18 17  0  0  0  0  0  0  0  0999 V2000
    2.5138    1.8994   -3.9631 O   0  0  0  0  0  0  0  0  0  0  0  0
    2.1670    1.6986   -2.8083 C   0  0  0  0  0  0  0  0  0  0  0  0
    0.8722    1.6041   -2.4452 O   0  0  0  0  0  0  0  0  0  0  0  0
    3.1256    1.5808   -1.6528 C   0  0  0  0  0  0  0  0  0  0  0  0
    4.5363    1.1375   -2.0702 C   0  0  0  0  0  0  0  0  0  0  0  0
    5.4002    2.1542   -2.8313 C   0  0  0  0  0  0  0  0  0  0  0  0
    5.0659    2.2512   -4.2209 O   0  0  0  0  0  0  0  0  0  0  0  0
    5.3932    3.5522   -2.2104 C   0  0  0  0  0  0  0  0  0  0  0  0
    5.4084    3.7919   -1.0133 O   0  0  0  0  0  0  0  0  0  0  0  0
    5.3727    4.5152   -3.1663 O   0  0  0  0  0  0  0  0  0  0  0  0
    0.7275    1.4788   -1.4873 H   0  0  0  0  0  0  0  0  0  0  0  0
    2.7348    0.8152   -0.9714 H   0  0  0  0  0  0  0  0  0  0  0  0
    3.1361    2.5322   -1.1140 H   0  0  0  0  0  0  0  0  0  0  0  0
    4.4568    0.2224   -2.6703 H   0  0  0  0  0  0  0  0  0  0  0  0
    5.0700    0.8738   -1.1478 H   0  0  0  0  0  0  0  0  0  0  0  0
    6.4421    1.8148   -2.8067 H   0  0  0  0  0  0  0  0  0  0  0  0
    4.0935    2.1308   -4.3242 H   0  0  0  0  0  0  0  0  0  0  0  0
    5.3610    4.0663   -4.0468 H   0  0  0  0  0  0  0  0  0  0  0  0
  1  2  2  0  0  0  0
  2  3  1  0  0  0  0
  2  4  1  0  0  0  0
  3 11  1  0  0  0  0
  4  5  1  0  0  0  0
  4 12  1  0  0  0  0
  4 13  1  0  0  0  0
  5  6  1  0  0  0  0
  5 14  1  0  0  0  0
  5 15  1  0  0  0  0
  6  7  1  0  0  0  0
  6  8  1  0  0  0  0
  6 16  1  0  0  0  0
  7 17  1  0  0  0  0
  8  9  2  0  0  0  0
  8 10  1  0  0  0  0
 10 18  1  0  0  0  0
M  END
$$$$
