CHEBI:17467
 OpenBabel04242416383D

 33 34  0  0  0  0  0  0  0  0999 V2000
    3.2855    1.9769    0.8767 C   0  0  0  0  0  0  0  0  0  0  0  0
    2.8760    1.3074   -0.3560 N   0  0  0  0  0  0  0  0  0  0  0  0
    1.4505    1.4016   -0.6752 C   0  0  0  0  0  0  0  0  0  0  0  0
    3.5638    0.1612   -0.7752 C   0  0  0  0  0  0  0  0  0  0  0  0
    4.7182   -0.3078   -0.1243 C   0  0  0  0  0  0  0  0  0  0  0  0
    5.4099   -1.4492   -0.5581 C   0  0  0  0  0  0  0  0  0  0  0  0
    4.9720   -2.1667   -1.6673 C   0  0  0  0  0  0  0  0  0  0  0  0
    5.7073   -3.2738   -2.1163 N   0  0  0  0  0  0  0  0  0  0  0  0
    5.2037   -4.4362   -1.9647 N   0  3  0  0  0  0  0  0  0  0  0  0
    4.0678   -4.6858   -1.4298 O   0  5  0  0  0  0  0  0  0  0  0  0
    6.0162   -5.5591   -2.4597 C   0  0  0  0  0  0  0  0  0  0  0  0
    7.3333   -5.3623   -2.9030 C   0  0  0  0  0  0  0  0  0  0  0  0
    8.0823   -6.4459   -3.3669 C   0  0  0  0  0  0  0  0  0  0  0  0
    7.5245   -7.7240   -3.3912 C   0  0  0  0  0  0  0  0  0  0  0  0
    6.2167   -7.9252   -2.9513 C   0  0  0  0  0  0  0  0  0  0  0  0
    5.4620   -6.8475   -2.4851 C   0  0  0  0  0  0  0  0  0  0  0  0
    3.8530   -1.7034   -2.3547 C   0  0  0  0  0  0  0  0  0  0  0  0
    3.1642   -0.5641   -1.9122 C   0  0  0  0  0  0  0  0  0  0  0  0
    2.7155    2.9006    1.0283 H   0  0  0  0  0  0  0  0  0  0  0  0
    4.3379    2.2784    0.8351 H   0  0  0  0  0  0  0  0  0  0  0  0
    3.1194    1.3348    1.7487 H   0  0  0  0  0  0  0  0  0  0  0  0
    0.9970    2.2850   -0.2112 H   0  0  0  0  0  0  0  0  0  0  0  0
    0.9051    0.5237   -0.3109 H   0  0  0  0  0  0  0  0  0  0  0  0
    1.2909    1.5131   -1.7526 H   0  0  0  0  0  0  0  0  0  0  0  0
    5.1137    0.1990    0.7504 H   0  0  0  0  0  0  0  0  0  0  0  0
    6.2967   -1.7714   -0.0191 H   0  0  0  0  0  0  0  0  0  0  0  0
    7.7922   -4.3763   -2.8924 H   0  0  0  0  0  0  0  0  0  0  0  0
    9.1031   -6.2935   -3.7095 H   0  0  0  0  0  0  0  0  0  0  0  0
    8.1105   -8.5654   -3.7531 H   0  0  0  0  0  0  0  0  0  0  0  0
    5.7836   -8.9223   -2.9702 H   0  0  0  0  0  0  0  0  0  0  0  0
    4.4427   -7.0203   -2.1438 H   0  0  0  0  0  0  0  0  0  0  0  0
    3.5025   -2.2262   -3.2404 H   0  0  0  0  0  0  0  0  0  0  0  0
    2.3071   -0.2505   -2.5002 H   0  0  0  0  0  0  0  0  0  0  0  0
  1  2  1  0  0  0  0
  1 19  1  0  0  0  0
  1 20  1  0  0  0  0
  1 21  1  0  0  0  0
  2  3  1  0  0  0  0
  2  4  1  0  0  0  0
  3 22  1  0  0  0  0
  3 23  1  0  0  0  0
  3 24  1  0  0  0  0
  4  5  1  0  0  0  0
  4 18  2  0  0  0  0
  5  6  2  0  0  0  0
  5 25  1  0  0  0  0
  6  7  1  0  0  0  0
  6 26  1  0  0  0  0
  7  8  1  0  0  0  0
  7 17  2  0  0  0  0
  8  9  2  0  0  0  0
  9 10  1  0  0  0  0
  9 11  1  0  0  0  0
 11 12  1  0  0  0  0
 11 16  2  0  0  0  0
 12 13  2  0  0  0  0
 12 27  1  0  0  0  0
 13 14  1  0  0  0  0
 13 28  1  0  0  0  0
 14 15  2  0  0  0  0
 14 29  1  0  0  0  0
 15 16  1  0  0  0  0
 15 30  1  0  0  0  0
 16 31  1  0  0  0  0
 17 18  1  0  0  0  0
 17 32  1  0  0  0  0
 18 33  1  0  0  0  0
M  CHG  2   9   1  10  -1
M  END
$$$$
