CHEBI:16397
 OpenBabel04242414183D

  6  5  0  0  0  0  0  0  0  0999 V2000
    1.1166   -0.0925   -0.0096 N   0  0  0  0  0  0  0  0  0  0  0  0
    2.4740   -0.0417    0.0225 C   0  0  0  0  0  0  0  0  0  0  0  0
    3.0977    0.8457    0.5825 O   0  0  0  0  0  0  0  0  0  0  0  0
    0.6092   -0.8308   -0.4755 H   0  0  0  0  0  0  0  0  0  0  0  0
    0.6014    0.6438    0.4551 H   0  0  0  0  0  0  0  0  0  0  0  0
    2.9505   -0.8820   -0.5078 H   0  0  0  0  0  0  0  0  0  0  0  0
  1  2  1  0  0  0  0
  1  4  1  0  0  0  0
  1  5  1  0  0  0  0
  2  3  2  0  0  0  0
  2  6  1  0  0  0  0
M  END
$$$$
