CHEBI:16603
 OpenBabel04242414533D

 45 47  0  0  1  0  0  0  0  0999 V2000
    7.2242  -11.3038    7.5260 C   0  0  0  0  0  0  0  0  0  0  0  0
    8.2781  -11.5271    6.5971 O   0  0  0  0  0  0  0  0  0  0  0  0
    8.8878  -10.4224    6.0717 C   0  0  0  0  0  0  0  0  0  0  0  0
    9.9358  -10.6975    5.1909 C   0  0  0  0  0  0  0  0  0  0  0  0
   10.6465   -9.6604    4.5810 C   0  0  0  0  0  0  0  0  0  0  0  0
   10.3161   -8.3310    4.8534 C   0  0  0  0  0  0  0  0  0  0  0  0
    9.2687   -8.0531    5.7352 C   0  0  0  0  0  0  0  0  0  0  0  0
    8.5525   -9.0949    6.3367 C   0  0  0  0  0  0  0  0  0  0  0  0
    8.8402   -6.7927    6.0472 O   0  0  0  0  0  0  0  0  0  0  0  0
    9.6695   -5.7232    5.6099 C   0  0  0  0  0  0  0  0  0  0  0  0
    8.8746   -4.5522    5.3856 O   0  0  0  0  0  0  0  0  0  0  0  0
    7.8722   -4.7567    4.3834 C   0  0  2  0  0  0  0  0  0  0  0  0
    8.4634   -5.1052    3.1397 O   0  0  0  0  0  0  0  0  0  0  0  0
    7.5042   -5.3016    2.0862 C   0  0  2  0  0  0  0  0  0  0  0  0
    8.3022   -5.6875    0.8339 C   0  0  0  0  0  0  0  0  0  0  0  0
    9.3006   -4.7043    0.5534 O   0  0  0  0  0  0  0  0  0  0  0  0
    6.6594   -4.0391    1.8539 C   0  0  1  0  0  0  0  0  0  0  0  0
    5.6075   -4.3045    0.9206 O   0  0  0  0  0  0  0  0  0  0  0  0
    6.0334   -3.5761    3.1714 C   0  0  2  0  0  0  0  0  0  0  0  0
    5.3628   -2.3232    2.9623 O   0  0  0  0  0  0  0  0  0  0  0  0
    7.0949   -3.4348    4.2572 C   0  0  1  0  0  0  0  0  0  0  0  0
    6.4484   -3.0851    5.4918 O   0  0  0  0  0  0  0  0  0  0  0  0
   10.7361   -5.9484    4.4979 C   0  0  0  0  0  0  0  0  0  0  0  0
   11.3294   -5.0451    3.9035 O   0  0  0  0  0  0  0  0  0  0  0  0
   10.9991   -7.2708    4.2538 N   0  0  0  0  0  0  0  0  0  0  0  0
   11.9798   -7.5758    3.2850 O   0  0  0  0  0  0  0  0  0  0  0  0
    6.8689  -12.2800    7.8698 H   0  0  0  0  0  0  0  0  0  0  0  0
    6.3824  -10.7909    7.0493 H   0  0  0  0  0  0  0  0  0  0  0  0
    7.5792  -10.7514    8.4024 H   0  0  0  0  0  0  0  0  0  0  0  0
   10.2018  -11.7302    4.9753 H   0  0  0  0  0  0  0  0  0  0  0  0
   11.4556   -9.9046    3.8969 H   0  0  0  0  0  0  0  0  0  0  0  0
    7.7390   -8.8377    7.0071 H   0  0  0  0  0  0  0  0  0  0  0  0
   10.2810   -5.4688    6.4862 H   0  0  0  0  0  0  0  0  0  0  0  0
    7.1944   -5.5520    4.7193 H   0  0  0  0  0  0  0  0  0  0  0  0
    6.8545   -6.1474    2.3463 H   0  0  0  0  0  0  0  0  0  0  0  0
    8.8277   -6.6341    0.9995 H   0  0  0  0  0  0  0  0  0  0  0  0
    7.6591   -5.7976   -0.0439 H   0  0  0  0  0  0  0  0  0  0  0  0
    9.7996   -4.5825    1.3854 H   0  0  0  0  0  0  0  0  0  0  0  0
    7.2713   -3.2285    1.4396 H   0  0  0  0  0  0  0  0  0  0  0  0
    5.0680   -3.4877    0.9070 H   0  0  0  0  0  0  0  0  0  0  0  0
    5.2511   -4.2777    3.4879 H   0  0  0  0  0  0  0  0  0  0  0  0
    5.1413   -1.9987    3.8589 H   0  0  0  0  0  0  0  0  0  0  0  0
    7.7731   -2.6074    4.0145 H   0  0  0  0  0  0  0  0  0  0  0  0
    7.1548   -3.1001    6.1681 H   0  0  0  0  0  0  0  0  0  0  0  0
   12.2276   -6.6829    2.9639 H   0  0  0  0  0  0  0  0  0  0  0  0
  1  2  1  0  0  0  0
  1 27  1  0  0  0  0
  1 28  1  0  0  0  0
  1 29  1  0  0  0  0
  2  3  1  0  0  0  0
  3  4  1  0  0  0  0
  3  8  2  0  0  0  0
  4  5  2  0  0  0  0
  4 30  1  0  0  0  0
  5  6  1  0  0  0  0
  5 31  1  0  0  0  0
  6  7  2  0  0  0  0
  6 25  1  0  0  0  0
  7  8  1  0  0  0  0
  7  9  1  0  0  0  0
  8 32  1  0  0  0  0
  9 10  1  0  0  0  0
 10 11  1  0  0  0  0
 10 23  1  0  0  0  0
 10 33  1  0  0  0  0
 12 13  1  0  0  0  0
 12 21  1  0  0  0  0
 12 11  1  0  0  0  0
 12 34  1  1  0  0  0
 13 14  1  0  0  0  0
 14 17  1  0  0  0  0
 14 15  1  0  0  0  0
 14 35  1  1  0  0  0
 15 16  1  0  0  0  0
 15 36  1  0  0  0  0
 15 37  1  0  0  0  0
 16 38  1  0  0  0  0
 17 18  1  0  0  0  0
 17 19  1  0  0  0  0
 17 39  1  6  0  0  0
 18 40  1  0  0  0  0
 19 20  1  0  0  0  0
 19 21  1  0  0  0  0
 19 41  1  1  0  0  0
 20 42  1  0  0  0  0
 21 22  1  0  0  0  0
 21 43  1  6  0  0  0
 22 44  1  0  0  0  0
 23 24  2  0  0  0  0
 23 25  1  0  0  0  0
 25 26  1  0  0  0  0
 26 45  1  0  0  0  0
M  END
$$$$
