CHEBI:16093
 OpenBabel04242413493D

 18 17  0  0  0  0  0  0  0  0999 V2000
    1.8873    0.8444   -0.6144 C   0  0  0  0  0  0  0  0  0  0  0  0
    2.7987   -0.1420   -0.7014 C   0  0  0  0  0  0  0  0  0  0  0  0
    3.4793   -0.4261   -1.9849 C   0  0  0  0  0  0  0  0  0  0  0  0
    4.4091   -1.2092   -2.1011 O   0  0  0  0  0  0  0  0  0  0  0  0
    2.9829    0.2396   -3.0358 O   0  0  0  0  0  0  0  0  0  0  0  0
    3.1781   -0.9979    0.4898 C   0  0  0  0  0  0  0  0  0  0  0  0
    2.9216   -2.4943    0.3026 C   0  0  0  0  0  0  0  0  0  0  0  0
    4.6015   -0.7232    0.9711 C   0  0  0  0  0  0  0  0  0  0  0  0
    4.8408   -0.1378    2.0203 O   0  0  0  0  0  0  0  0  0  0  0  0
    5.5954   -1.1600    0.1691 O   0  0  0  0  0  0  0  0  0  0  0  0
    1.6175    1.4645   -1.4651 H   0  0  0  0  0  0  0  0  0  0  0  0
    1.3849    1.0716    0.3215 H   0  0  0  0  0  0  0  0  0  0  0  0
    3.5231   -0.0442   -3.8018 H   0  0  0  0  0  0  0  0  0  0  0  0
    2.5383   -0.7020    1.3351 H   0  0  0  0  0  0  0  0  0  0  0  0
    3.5392   -2.9374   -0.4842 H   0  0  0  0  0  0  0  0  0  0  0  0
    1.8718   -2.6807    0.0515 H   0  0  0  0  0  0  0  0  0  0  0  0
    3.1486   -3.0376    1.2269 H   0  0  0  0  0  0  0  0  0  0  0  0
    5.3007   -1.5011   -0.7086 H   0  0  0  0  0  0  0  0  0  0  0  0
  1  2  2  0  0  0  0
  1 11  1  0  0  0  0
  1 12  1  0  0  0  0
  2  3  1  0  0  0  0
  2  6  1  0  0  0  0
  3  4  2  0  0  0  0
  3  5  1  0  0  0  0
  5 13  1  0  0  0  0
  6  7  1  0  0  0  0
  6  8  1  0  0  0  0
  6 14  1  0  0  0  0
  7 15  1  0  0  0  0
  7 16  1  0  0  0  0
  7 17  1  0  0  0  0
  8  9  2  0  0  0  0
  8 10  1  0  0  0  0
 10 18  1  0  0  0  0
M  END
$$$$
