CHEBI:15556
 OpenBabel04242412473D

 55 56  0  0  1  0  0  0  0  0999 V2000
    7.6905    3.0004   -0.1604 C   0  0  0  0  0  0  0  0  0  0  0  0
    6.9629    1.9595   -0.9951 C   0  0  0  0  0  0  0  0  0  0  0  0
    7.4688    0.5471   -0.7003 C   0  0  0  0  0  0  0  0  0  0  0  0
    6.7305   -0.4863   -1.5496 C   0  0  0  0  0  0  0  0  0  0  0  0
    7.2382   -1.9028   -1.2891 C   0  0  0  0  0  0  0  0  0  0  0  0
    6.4845   -2.8948   -2.1515 C   0  0  0  0  0  0  0  0  0  0  0  0
    5.2565   -2.8958   -2.2190 O   0  0  0  0  0  0  0  0  0  0  0  0
    7.2934   -3.8901   -2.9156 C   0  0  0  0  0  0  0  0  0  0  0  0
    6.7069   -4.6152   -3.8804 C   0  0  0  0  0  0  0  0  0  0  0  0
    7.3949   -5.6741   -4.7046 C   0  0  2  0  0  0  0  0  0  0  0  0
    7.3659   -5.3510   -6.2082 C   0  0  1  0  0  0  0  0  0  0  0  0
    8.5851   -4.6071   -6.7103 C   0  0  0  0  0  0  0  0  0  0  0  0
    9.5562   -5.7350   -6.8779 C   0  0  0  0  0  0  0  0  0  0  0  0
   10.8900   -5.6131   -6.9121 C   0  0  0  0  0  0  0  0  0  0  0  0
   11.8490   -6.7677   -7.0298 C   0  0  0  0  0  0  0  0  0  0  0  0
   12.7657   -6.9195   -5.8082 C   0  0  0  0  0  0  0  0  0  0  0  0
   13.7689   -5.7807   -5.6216 C   0  0  0  0  0  0  0  0  0  0  0  0
   14.7671   -5.7052   -6.7441 C   0  0  0  0  0  0  0  0  0  0  0  0
   15.1618   -6.6235   -7.4447 O   0  0  0  0  0  0  0  0  0  0  0  0
   15.2610   -4.4630   -6.9052 O   0  0  0  0  0  0  0  0  0  0  0  0
    8.9375   -6.9751   -6.9142 O   0  0  0  0  0  0  0  0  0  0  0  0
    7.5270   -6.7116   -6.8658 C   0  0  1  0  0  0  0  0  0  0  0  0
    6.8308   -7.7179   -5.9606 C   0  0  0  0  0  0  0  0  0  0  0  0
    6.6613   -7.0241   -4.6072 C   0  0  1  0  0  0  0  0  0  0  0  0
    7.2118   -7.8283   -3.5709 O   0  0  0  0  0  0  0  0  0  0  0  0
    7.3116    4.0013   -0.3899 H   0  0  0  0  0  0  0  0  0  0  0  0
    8.7651    2.9882   -0.3680 H   0  0  0  0  0  0  0  0  0  0  0  0
    7.5438    2.8184    0.9089 H   0  0  0  0  0  0  0  0  0  0  0  0
    7.1024    2.1900   -2.0578 H   0  0  0  0  0  0  0  0  0  0  0  0
    5.8879    2.0206   -0.7890 H   0  0  0  0  0  0  0  0  0  0  0  0
    7.3266    0.3184    0.3629 H   0  0  0  0  0  0  0  0  0  0  0  0
    8.5450    0.4912   -0.9032 H   0  0  0  0  0  0  0  0  0  0  0  0
    6.8520   -0.2473   -2.6138 H   0  0  0  0  0  0  0  0  0  0  0  0
    5.6552   -0.4309   -1.3384 H   0  0  0  0  0  0  0  0  0  0  0  0
    7.0903   -2.1872   -0.2413 H   0  0  0  0  0  0  0  0  0  0  0  0
    8.3112   -1.9581   -1.5020 H   0  0  0  0  0  0  0  0  0  0  0  0
    8.3428   -3.9908   -2.6678 H   0  0  0  0  0  0  0  0  0  0  0  0
    5.6474   -4.4553   -4.0892 H   0  0  0  0  0  0  0  0  0  0  0  0
    8.4256   -5.7955   -4.3437 H   0  0  0  0  0  0  0  0  0  0  0  0
    6.4267   -4.8639   -6.4960 H   0  0  0  0  0  0  0  0  0  0  0  0
    8.9308   -3.8366   -6.0153 H   0  0  0  0  0  0  0  0  0  0  0  0
    8.3827   -4.1506   -7.6856 H   0  0  0  0  0  0  0  0  0  0  0  0
   11.3228   -4.6171   -6.8722 H   0  0  0  0  0  0  0  0  0  0  0  0
   12.4421   -6.6375   -7.9417 H   0  0  0  0  0  0  0  0  0  0  0  0
   11.3039   -7.7106   -7.1583 H   0  0  0  0  0  0  0  0  0  0  0  0
   13.3112   -7.8672   -5.9017 H   0  0  0  0  0  0  0  0  0  0  0  0
   12.1529   -7.0015   -4.9015 H   0  0  0  0  0  0  0  0  0  0  0  0
   14.3321   -5.9358   -4.6946 H   0  0  0  0  0  0  0  0  0  0  0  0
   13.2456   -4.8229   -5.5365 H   0  0  0  0  0  0  0  0  0  0  0  0
   15.9027   -4.5591   -7.6404 H   0  0  0  0  0  0  0  0  0  0  0  0
    7.1394   -6.7417   -7.8909 H   0  0  0  0  0  0  0  0  0  0  0  0
    7.3789   -8.6626   -5.8865 H   0  0  0  0  0  0  0  0  0  0  0  0
    5.8339   -7.9328   -6.3641 H   0  0  0  0  0  0  0  0  0  0  0  0
    5.5927   -6.9015   -4.3931 H   0  0  0  0  0  0  0  0  0  0  0  0
    7.1234   -7.3302   -2.7399 H   0  0  0  0  0  0  0  0  0  0  0  0
  1  2  1  0  0  0  0
  1 26  1  0  0  0  0
  1 27  1  0  0  0  0
  1 28  1  0  0  0  0
  2  3  1  0  0  0  0
  2 29  1  0  0  0  0
  2 30  1  0  0  0  0
  3  4  1  0  0  0  0
  3 31  1  0  0  0  0
  3 32  1  0  0  0  0
  4  5  1  0  0  0  0
  4 33  1  0  0  0  0
  4 34  1  0  0  0  0
  5  6  1  0  0  0  0
  5 35  1  0  0  0  0
  5 36  1  0  0  0  0
  6  7  2  0  0  0  0
  6  8  1  0  0  0  0
  8  9  2  0  0  0  0
  8 37  1  0  0  0  0
  9 10  1  0  0  0  0
  9 38  1  0  0  0  0
 10 11  1  0  0  0  0
 10 24  1  0  0  0  0
 10 39  1  1  0  0  0
 11 12  1  0  0  0  0
 11 22  1  0  0  0  0
 11 40  1  6  0  0  0
 12 13  1  0  0  0  0
 12 41  1  0  0  0  0
 12 42  1  0  0  0  0
 13 14  2  0  0  0  0
 13 21  1  0  0  0  0
 14 15  1  0  0  0  0
 14 43  1  0  0  0  0
 15 16  1  0  0  0  0
 15 44  1  0  0  0  0
 15 45  1  0  0  0  0
 16 17  1  0  0  0  0
 16 46  1  0  0  0  0
 16 47  1  0  0  0  0
 17 18  1  0  0  0  0
 17 48  1  0  0  0  0
 17 49  1  0  0  0  0
 18 19  2  0  0  0  0
 18 20  1  0  0  0  0
 20 50  1  0  0  0  0
 21 22  1  0  0  0  0
 22 23  1  0  0  0  0
 22 51  1  6  0  0  0
 23 24  1  0  0  0  0
 23 52  1  0  0  0  0
 23 53  1  0  0  0  0
 24 25  1  0  0  0  0
 24 54  1  1  0  0  0
 25 55  1  0  0  0  0
M  END
$$$$
