CHEBI:17214
 OpenBabel04242416013D

 20 19  0  0  1  0  0  0  0  0999 V2000
   -0.3786   -0.7913    0.9757 C   0  0  0  0  0  0  0  0  0  0  0  0
    0.8153    0.1483    1.1765 C   0  0  0  0  0  0  0  0  0  0  0  0
    0.3072    1.5860    1.3312 C   0  0  0  0  0  0  0  0  0  0  0  0
    1.8843   -0.0387    0.0722 C   0  0  2  0  0  0  0  0  0  0  0  0
    3.2811    0.5070    0.3889 C   0  0  0  0  0  0  0  0  0  0  0  0
    4.1924    0.2208   -0.4440 O   0  0  0  0  0  0  0  0  0  0  0  0
    3.4262    1.0847    1.5102 O   0  5  0  0  0  0  0  0  0  0  0  0
    1.4285    0.4910   -1.2789 C   0  0  0  0  0  0  0  0  0  0  0  0
    1.3056    1.6896   -1.5497 O   0  0  0  0  0  0  0  0  0  0  0  0
    0.9530   -0.5059   -2.3620 C   0  0  0  0  0  0  0  0  0  0  0  0
    0.7728   -0.0711   -3.5504 O   0  0  0  0  0  0  0  0  0  0  0  0
    0.7031   -1.6993   -1.9767 O   0  5  0  0  0  0  0  0  0  0  0  0
   -1.0699   -0.7226    1.8230 H   0  0  0  0  0  0  0  0  0  0  0  0
   -0.0494   -1.8333    0.9040 H   0  0  0  0  0  0  0  0  0  0  0  0
   -0.9404   -0.5444    0.0693 H   0  0  0  0  0  0  0  0  0  0  0  0
    1.2735   -0.1347    2.1339 H   0  0  0  0  0  0  0  0  0  0  0  0
   -0.3158    1.8902    0.4842 H   0  0  0  0  0  0  0  0  0  0  0  0
    1.1285    2.3013    1.4256 H   0  0  0  0  0  0  0  0  0  0  0  0
   -0.3093    1.6738    2.2329 H   0  0  0  0  0  0  0  0  0  0  0  0
    2.0600   -1.1187   -0.0278 H   0  0  0  0  0  0  0  0  0  0  0  0
  1  2  1  0  0  0  0
  1 13  1  0  0  0  0
  1 14  1  0  0  0  0
  1 15  1  0  0  0  0
  2  3  1  0  0  0  0
  2 16  1  0  0  0  0
  3 17  1  0  0  0  0
  3 18  1  0  0  0  0
  3 19  1  0  0  0  0
  4  8  1  0  0  0  0
  4  5  1  0  0  0  0
  4  2  1  0  0  0  0
  4 20  1  6  0  0  0
  5  6  2  0  0  0  0
  5  7  1  0  0  0  0
  8  9  2  0  0  0  0
  8 10  1  0  0  0  0
 10 11  2  0  0  0  0
 10 12  1  0  0  0  0
M  CHG  2   7  -1  12  -1
M  END
$$$$
