CHEBI:15891
 OpenBabel04242413253D

 14 13  0  0  0  0  0  0  0  0999 V2000
    2.1736    1.0069   -0.4128 N   0  0  0  0  0  0  0  0  0  0  0  0
    3.4233    0.4583    0.1198 C   0  0  0  0  0  0  0  0  0  0  0  0
    3.5904   -0.9992   -0.2748 C   0  0  0  0  0  0  0  0  0  0  0  0
    5.1211   -1.6349    0.3869 S   0  0  0  0  0  0  0  0  0  0  0  0
    6.2429   -1.0385   -0.3017 O   0  0  0  0  0  0  0  0  0  0  0  0
    5.0400   -1.7040    1.8270 O   0  0  0  0  0  0  0  0  0  0  0  0
    5.0086   -3.1387   -0.1905 O   0  0  0  0  0  0  0  0  0  0  0  0
    2.1091    1.9957   -0.1654 H   0  0  0  0  0  0  0  0  0  0  0  0
    1.3755    0.5586    0.0390 H   0  0  0  0  0  0  0  0  0  0  0  0
    3.4281    0.5680    1.2099 H   0  0  0  0  0  0  0  0  0  0  0  0
    4.2596    1.0509   -0.2672 H   0  0  0  0  0  0  0  0  0  0  0  0
    3.6290   -1.1154   -1.3627 H   0  0  0  0  0  0  0  0  0  0  0  0
    2.7796   -1.6148    0.1282 H   0  0  0  0  0  0  0  0  0  0  0  0
    5.8042   -3.3123   -0.7389 H   0  0  0  0  0  0  0  0  0  0  0  0
  1  2  1  0  0  0  0
  1  8  1  0  0  0  0
  1  9  1  0  0  0  0
  2  3  1  0  0  0  0
  2 10  1  0  0  0  0
  2 11  1  0  0  0  0
  3  4  1  0  0  0  0
  3 12  1  0  0  0  0
  3 13  1  0  0  0  0
  4  5  2  0  0  0  0
  4  6  2  0  0  0  0
  4  7  1  0  0  0  0
  7 14  1  0  0  0  0
M  END
$$$$
