CHEBI:17937
 OpenBabel04242423183D

 21 21  0  0  1  0  0  0  0  0999 V2000
    5.3647   -0.9861    2.6161 C   0  0  0  0  0  0  0  0  0  0  0  0
    4.5804   -0.6322    1.3571 C   0  0  2  0  0  0  0  0  0  0  0  0
    5.2113   -1.2109    0.2155 O   0  0  0  0  0  0  0  0  0  0  0  0
    3.0851   -0.9829    1.3617 C   0  0  2  0  0  0  0  0  0  0  0  0
    2.4251   -0.5036    2.5412 O   0  0  0  0  0  0  0  0  0  0  0  0
    1.3289   -1.2962    2.7844 C   0  0  0  0  0  0  0  0  0  0  0  0
    0.5826   -1.1381    3.7354 O   0  0  0  0  0  0  0  0  0  0  0  0
    1.2467   -2.3942    1.7243 C   0  0  2  0  0  0  0  0  0  0  0  0
    0.7632   -3.6652    2.1024 O   0  0  0  0  0  0  0  0  0  0  0  0
    2.7065   -2.4544    1.2959 C   0  0  2  0  0  0  0  0  0  0  0  0
    3.4373   -3.2911    2.2049 O   0  0  0  0  0  0  0  0  0  0  0  0
    6.3612   -0.5317    2.5677 H   0  0  0  0  0  0  0  0  0  0  0  0
    5.5382   -2.0620    2.7056 H   0  0  0  0  0  0  0  0  0  0  0  0
    4.8707   -0.6236    3.5218 H   0  0  0  0  0  0  0  0  0  0  0  0
    4.6535    0.4565    1.2422 H   0  0  0  0  0  0  0  0  0  0  0  0
    5.4419   -2.1341    0.4290 H   0  0  0  0  0  0  0  0  0  0  0  0
    2.6262   -0.4694    0.5044 H   0  0  0  0  0  0  0  0  0  0  0  0
    0.6149   -2.0098    0.9152 H   0  0  0  0  0  0  0  0  0  0  0  0
    1.4975   -4.1341    2.5430 H   0  0  0  0  0  0  0  0  0  0  0  0
    2.8292   -2.8821    0.2967 H   0  0  0  0  0  0  0  0  0  0  0  0
    3.4410   -2.8815    3.0915 H   0  0  0  0  0  0  0  0  0  0  0  0
  1 12  1  0  0  0  0
  1 13  1  0  0  0  0
  1 14  1  0  0  0  0
  2  3  1  0  0  0  0
  2  1  1  0  0  0  0
  2 15  1  1  0  0  0
  3 16  1  0  0  0  0
  4  5  1  0  0  0  0
  4 10  1  0  0  0  0
  4  2  1  0  0  0  0
  4 17  1  6  0  0  0
  5  6  1  0  0  0  0
  6  7  2  0  0  0  0
  6  8  1  0  0  0  0
  8  9  1  0  0  0  0
  8 10  1  0  0  0  0
  8 18  1  6  0  0  0
  9 19  1  0  0  0  0
 10 11  1  0  0  0  0
 10 20  1  6  0  0  0
 11 21  1  0  0  0  0
M  END
$$$$
