CHEBI:15939
 OpenBabel04242413313D

120126  0  0  1  0  0  0  0  0999 V2000
   -1.6215    1.5972    0.3343 C   0  0  0  0  0  0  0  0  0  0  0  0
   -1.5919    0.6402   -0.8729 C   0  0  0  0  0  0  0  0  0  0  0  0
   -0.2047   -0.0557   -0.7958 C   0  0  0  0  0  0  0  0  0  0  0  0
   -1.6945    1.4147   -2.2428 C   0  0  1  0  0  0  0  0  0  0  0  0
   -1.3432    0.4644   -3.2880 O   0  0  0  0  0  0  0  0  0  0  0  0
   -1.3175    0.9827   -4.6210 C   0  0  1  0  0  0  0  0  0  0  0  0
   -0.2387    1.8916   -4.8115 O   0  0  0  0  0  0  0  0  0  0  0  0
    0.0477    2.1978   -6.1945 C   0  0  2  0  0  0  0  0  0  0  0  0
    0.3947    3.6856   -6.2598 C   0  0  0  0  0  0  0  0  0  0  0  0
    0.6289    4.4376   -5.3269 O   0  0  0  0  0  0  0  0  0  0  0  0
    0.4786    4.1625   -7.5244 O   0  0  0  0  0  0  0  0  0  0  0  0
   -1.1139    1.8688   -7.1583 C   0  0  1  0  0  0  0  0  0  0  0  0
   -0.7971    2.0528   -8.5452 O   0  0  0  0  0  0  0  0  0  0  0  0
   -1.5881    0.4074   -7.0020 C   0  0  2  0  0  0  0  0  0  0  0  0
   -3.0160    0.3778   -7.1712 O   0  0  0  0  0  0  0  0  0  0  0  0
   -1.2178   -0.1815   -5.6332 C   0  0  1  0  0  0  0  0  0  0  0  0
    0.1060   -0.7244   -5.7923 O   0  0  0  0  0  0  0  0  0  0  0  0
    0.7406   -1.3864   -4.6978 C   0  0  2  0  0  0  0  0  0  0  0  0
    2.0478   -1.7294   -5.1682 O   0  0  0  0  0  0  0  0  0  0  0  0
    2.8512   -2.4660   -4.2381 C   0  0  2  0  0  0  0  0  0  0  0  0
    4.2107   -2.7447   -4.8689 C   0  0  0  0  0  0  0  0  0  0  0  0
    4.4594   -2.8889   -6.0560 O   0  0  0  0  0  0  0  0  0  0  0  0
    5.2054   -2.8340   -3.9593 O   0  0  0  0  0  0  0  0  0  0  0  0
    2.1887   -3.8048   -3.9096 C   0  0  1  0  0  0  0  0  0  0  0  0
    2.9124   -4.5535   -2.9279 O   0  0  0  0  0  0  0  0  0  0  0  0
    0.8032   -3.5274   -3.3436 C   0  0  2  0  0  0  0  0  0  0  0  0
    0.1313   -4.7769   -3.1004 O   0  0  0  0  0  0  0  0  0  0  0  0
   -0.0274   -2.6585   -4.2796 C   0  0  1  0  0  0  0  0  0  0  0  0
   -1.2419   -2.3826   -3.5759 O   0  0  0  0  0  0  0  0  0  0  0  0
   -3.1217    1.9943   -2.4184 C   0  0  0  0  0  0  0  0  0  0  0  0
   -4.2369    0.9324   -2.3669 C   0  0  0  0  0  0  0  0  0  0  0  0
   -4.2149    0.0500   -1.0786 C   0  0  2  0  0  0  0  0  0  0  0  0
   -4.6978    0.9424    0.0921 C   0  0  0  0  0  0  0  0  0  0  0  0
   -5.2119   -1.2154   -1.2442 C   0  0  1  0  0  0  0  0  0  0  0  0
   -6.3025   -1.3330   -0.1555 C   0  0  0  0  0  0  0  0  0  0  0  0
   -7.2087   -0.5120   -0.0244 O   0  0  0  0  0  0  0  0  0  0  0  0
   -6.2679   -2.4826    0.7758 C   0  0  0  0  0  0  0  0  0  0  0  0
   -5.8559   -3.6910    0.3449 C   0  0  0  0  0  0  0  0  0  0  0  0
   -5.4631   -4.7875    1.3481 C   0  0  2  0  0  0  0  0  0  0  0  0
   -6.1873   -4.7589    2.7162 C   0  0  0  0  0  0  0  0  0  0  0  0
   -5.6039   -5.7632    3.7439 C   0  0  1  0  0  0  0  0  0  0  0  0
   -4.1996   -5.2883    4.1980 C   0  0  0  0  0  0  0  0  0  0  0  0
   -6.5032   -5.7917    4.9901 C   0  0  0  0  0  0  0  0  0  0  0  0
   -6.1375   -5.4740    6.1128 O   0  0  0  0  0  0  0  0  0  0  0  0
   -7.7728   -6.1973    4.7641 O   0  0  0  0  0  0  0  0  0  0  0  0
   -5.4892   -7.1810    3.1523 C   0  0  0  0  0  0  0  0  0  0  0  0
   -4.8027   -7.2052    1.7874 C   0  0  0  0  0  0  0  0  0  0  0  0
   -5.4229   -6.2218    0.7593 C   0  0  1  0  0  0  0  0  0  0  0  0
   -6.8184   -6.7464    0.3605 C   0  0  0  0  0  0  0  0  0  0  0  0
   -4.4864   -6.1873   -0.4599 C   0  0  0  0  0  0  0  0  0  0  0  0
   -4.9580   -5.2549   -1.5649 C   0  0  0  0  0  0  0  0  0  0  0  0
   -5.5304   -3.8480   -1.1603 C   0  0  2  0  0  0  0  0  0  0  0  0
   -6.8614   -3.7235   -1.9826 C   0  0  0  0  0  0  0  0  0  0  0  0
   -4.5283   -2.6352   -1.5195 C   0  0  1  0  0  0  0  0  0  0  0  0
   -4.2058   -2.6670   -3.0454 C   0  0  0  0  0  0  0  0  0  0  0  0
   -3.2007   -2.8304   -0.6877 C   0  0  0  0  0  0  0  0  0  0  0  0
   -2.6938   -1.5955    0.0701 C   0  0  0  0  0  0  0  0  0  0  0  0
   -2.7402   -0.4349   -0.9063 C   0  0  1  0  0  0  0  0  0  0  0  0
   -2.2645    2.4659    0.1929 H   0  0  0  0  0  0  0  0  0  0  0  0
   -0.6279    2.0228    0.5236 H   0  0  0  0  0  0  0  0  0  0  0  0
   -1.9271    1.0758    1.2476 H   0  0  0  0  0  0  0  0  0  0  0  0
    0.5983    0.6487   -1.0435 H   0  0  0  0  0  0  0  0  0  0  0  0
   -0.1237   -0.9043   -1.4782 H   0  0  0  0  0  0  0  0  0  0  0  0
    0.0003   -0.4282    0.2146 H   0  0  0  0  0  0  0  0  0  0  0  0
   -0.9588    2.2284   -2.2613 H   0  0  0  0  0  0  0  0  0  0  0  0
   -2.2601    1.5045   -4.8015 H   0  0  0  0  0  0  0  0  0  0  0  0
    0.9583    1.6587   -6.4821 H   0  0  0  0  0  0  0  0  0  0  0  0
    0.7569    5.0969   -7.3912 H   0  0  0  0  0  0  0  0  0  0  0  0
   -1.9527    2.5464   -6.9505 H   0  0  0  0  0  0  0  0  0  0  0  0
   -0.3482    2.9191   -8.6318 H   0  0  0  0  0  0  0  0  0  0  0  0
   -1.1720   -0.2223   -7.7984 H   0  0  0  0  0  0  0  0  0  0  0  0
   -3.1804    0.6447   -8.0965 H   0  0  0  0  0  0  0  0  0  0  0  0
   -1.9220   -0.9816   -5.3887 H   0  0  0  0  0  0  0  0  0  0  0  0
    0.8501   -0.6819   -3.8672 H   0  0  0  0  0  0  0  0  0  0  0  0
    3.0131   -1.8510   -3.3442 H   0  0  0  0  0  0  0  0  0  0  0  0
    5.9919   -3.0767   -4.4904 H   0  0  0  0  0  0  0  0  0  0  0  0
    2.1083   -4.4350   -4.8046 H   0  0  0  0  0  0  0  0  0  0  0  0
    2.3190   -5.2927   -2.6800 H   0  0  0  0  0  0  0  0  0  0  0  0
    0.8884   -3.0528   -2.3574 H   0  0  0  0  0  0  0  0  0  0  0  0
   -0.8071   -4.5366   -2.9563 H   0  0  0  0  0  0  0  0  0  0  0  0
   -0.3124   -3.2346   -5.1678 H   0  0  0  0  0  0  0  0  0  0  0  0
   -1.2203   -1.4460   -3.2902 H   0  0  0  0  0  0  0  0  0  0  0  0
   -3.2072    2.5330   -3.3670 H   0  0  0  0  0  0  0  0  0  0  0  0
   -3.3091    2.7590   -1.6582 H   0  0  0  0  0  0  0  0  0  0  0  0
   -4.1436    0.3035   -3.2584 H   0  0  0  0  0  0  0  0  0  0  0  0
   -5.2090    1.4337   -2.4583 H   0  0  0  0  0  0  0  0  0  0  0  0
   -5.7221    1.2912   -0.0758 H   0  0  0  0  0  0  0  0  0  0  0  0
   -4.1365    1.8646    0.2041 H   0  0  0  0  0  0  0  0  0  0  0  0
   -4.6595    0.4204    1.0528 H   0  0  0  0  0  0  0  0  0  0  0  0
   -5.8199   -0.9975   -2.1368 H   0  0  0  0  0  0  0  0  0  0  0  0
   -6.5207   -2.2310    1.7962 H   0  0  0  0  0  0  0  0  0  0  0  0
   -4.4196   -4.5362    1.5825 H   0  0  0  0  0  0  0  0  0  0  0  0
   -7.2572   -4.9330    2.5533 H   0  0  0  0  0  0  0  0  0  0  0  0
   -6.1213   -3.7619    3.1680 H   0  0  0  0  0  0  0  0  0  0  0  0
   -3.4705   -5.2692    3.3831 H   0  0  0  0  0  0  0  0  0  0  0  0
   -3.7927   -5.9474    4.9743 H   0  0  0  0  0  0  0  0  0  0  0  0
   -4.2419   -4.2775    4.6205 H   0  0  0  0  0  0  0  0  0  0  0  0
   -7.9841   -6.4257    3.8414 H   0  0  0  0  0  0  0  0  0  0  0  0
   -6.4752   -7.6485    3.0568 H   0  0  0  0  0  0  0  0  0  0  0  0
   -4.9345   -7.8308    3.8421 H   0  0  0  0  0  0  0  0  0  0  0  0
   -4.8362   -8.2295    1.3930 H   0  0  0  0  0  0  0  0  0  0  0  0
   -3.7372   -6.9793    1.9222 H   0  0  0  0  0  0  0  0  0  0  0  0
   -7.4901   -6.8338    1.2191 H   0  0  0  0  0  0  0  0  0  0  0  0
   -6.7419   -7.7403   -0.0955 H   0  0  0  0  0  0  0  0  0  0  0  0
   -7.3209   -6.1018   -0.3600 H   0  0  0  0  0  0  0  0  0  0  0  0
   -4.3743   -7.1966   -0.8786 H   0  0  0  0  0  0  0  0  0  0  0  0
   -3.4766   -5.8875   -0.1509 H   0  0  0  0  0  0  0  0  0  0  0  0
   -5.7195   -5.8120   -2.1288 H   0  0  0  0  0  0  0  0  0  0  0  0
   -4.1307   -5.1626   -2.2727 H   0  0  0  0  0  0  0  0  0  0  0  0
   -7.6319   -4.3991   -1.5985 H   0  0  0  0  0  0  0  0  0  0  0  0
   -6.7081   -3.9890   -3.0352 H   0  0  0  0  0  0  0  0  0  0  0  0
   -7.3036   -2.7254   -1.9782 H   0  0  0  0  0  0  0  0  0  0  0  0
   -5.1121   -2.6572   -3.6576 H   0  0  0  0  0  0  0  0  0  0  0  0
   -3.6184   -3.5395   -3.3391 H   0  0  0  0  0  0  0  0  0  0  0  0
   -3.6376   -1.7936   -3.3635 H   0  0  0  0  0  0  0  0  0  0  0  0
   -2.4040   -3.1741   -1.3599 H   0  0  0  0  0  0  0  0  0  0  0  0
   -3.2769   -3.6329    0.0440 H   0  0  0  0  0  0  0  0  0  0  0  0
   -1.6846   -1.8105    0.4297 H   0  0  0  0  0  0  0  0  0  0  0  0
   -3.3030   -1.4083    0.9599 H   0  0  0  0  0  0  0  0  0  0  0  0
   -2.5196   -0.9224   -1.8553 H   0  0  0  0  0  0  0  0  0  0  0  0
  1  2  1  0  0  0  0
  1 59  1  0  0  0  0
  1 60  1  0  0  0  0
  1 61  1  0  0  0  0
  2  4  1  0  0  0  0
  2 58  1  0  0  0  0
  2  3  1  0  0  0  0
  3 62  1  0  0  0  0
  3 63  1  0  0  0  0
  3 64  1  0  0  0  0
  4 30  1  0  0  0  0
  4  5  1  0  0  0  0
  4 65  1  6  0  0  0
  6  7  1  0  0  0  0
  6 16  1  0  0  0  0
  6  5  1  0  0  0  0
  6 66  1  6  0  0  0
  7  8  1  0  0  0  0
  8 12  1  0  0  0  0
  8  9  1  0  0  0  0
  8 67  1  6  0  0  0
  9 10  2  0  0  0  0
  9 11  1  0  0  0  0
 11 68  1  0  0  0  0
 12 13  1  0  0  0  0
 12 14  1  0  0  0  0
 12 69  1  1  0  0  0
 13 70  1  0  0  0  0
 14 16  1  0  0  0  0
 14 15  1  0  0  0  0
 14 71  1  6  0  0  0
 15 72  1  0  0  0  0
 16 17  1  0  0  0  0
 16 73  1  1  0  0  0
 17 18  1  0  0  0  0
 18 19  1  0  0  0  0
 18 28  1  0  0  0  0
 18 74  1  1  0  0  0
 19 20  1  0  0  0  0
 20 24  1  0  0  0  0
 20 21  1  0  0  0  0
 20 75  1  1  0  0  0
 21 22  2  0  0  0  0
 21 23  1  0  0  0  0
 23 76  1  0  0  0  0
 24 25  1  0  0  0  0
 24 26  1  0  0  0  0
 24 77  1  6  0  0  0
 25 78  1  0  0  0  0
 26 28  1  0  0  0  0
 26 27  1  0  0  0  0
 26 79  1  1  0  0  0
 27 80  1  0  0  0  0
 28 29  1  0  0  0  0
 28 81  1  6  0  0  0
 29 82  1  0  0  0  0
 30 31  1  0  0  0  0
 30 83  1  0  0  0  0
 30 84  1  0  0  0  0
 31 32  1  0  0  0  0
 31 85  1  0  0  0  0
 31 86  1  0  0  0  0
 32 34  1  0  0  0  0
 32 58  1  0  0  0  0
 32 33  1  6  0  0  0
 33 87  1  0  0  0  0
 33 88  1  0  0  0  0
 33 89  1  0  0  0  0
 34 35  1  0  0  0  0
 34 54  1  0  0  0  0
 34 90  1  1  0  0  0
 35 37  1  0  0  0  0
 35 36  2  0  0  0  0
 37 38  2  0  0  0  0
 37 91  1  0  0  0  0
 38 39  1  0  0  0  0
 38 52  1  0  0  0  0
 39 40  1  0  0  0  0
 39 48  1  0  0  0  0
 39 92  1  6  0  0  0
 40 41  1  0  0  0  0
 40 93  1  0  0  0  0
 40 94  1  0  0  0  0
 41 46  1  0  0  0  0
 41 43  1  1  0  0  0
 41 42  1  0  0  0  0
 42 95  1  0  0  0  0
 42 96  1  0  0  0  0
 42 97  1  0  0  0  0
 43 44  2  0  0  0  0
 43 45  1  0  0  0  0
 45 98  1  0  0  0  0
 46 47  1  0  0  0  0
 46 99  1  0  0  0  0
 46100  1  0  0  0  0
 47 48  1  0  0  0  0
 47101  1  0  0  0  0
 47102  1  0  0  0  0
 48 50  1  0  0  0  0
 48 49  1  6  0  0  0
 49103  1  0  0  0  0
 49104  1  0  0  0  0
 49105  1  0  0  0  0
 50 51  1  0  0  0  0
 50106  1  0  0  0  0
 50107  1  0  0  0  0
 51 52  1  0  0  0  0
 51108  1  0  0  0  0
 51109  1  0  0  0  0
 52 54  1  0  0  0  0
 52 53  1  1  0  0  0
 53110  1  0  0  0  0
 53111  1  0  0  0  0
 53112  1  0  0  0  0
 54 56  1  0  0  0  0
 54 55  1  6  0  0  0
 55113  1  0  0  0  0
 55114  1  0  0  0  0
 55115  1  0  0  0  0
 56 57  1  0  0  0  0
 56116  1  0  0  0  0
 56117  1  0  0  0  0
 57 58  1  0  0  0  0
 57118  1  0  0  0  0
 57119  1  0  0  0  0
 58120  1  1  0  0  0
M  END
$$$$
