CHEBI:18128
 OpenBabel04242423343D

 51 54  0  0  1  0  0  0  0  0999 V2000
    7.9052    5.1735    3.5903 O   0  0  0  0  0  0  0  0  0  0  0  0
    7.9523    4.8585    2.4086 C   0  0  0  0  0  0  0  0  0  0  0  0
    8.9296    4.0800    1.8871 O   0  0  0  0  0  0  0  0  0  0  0  0
    6.9243    5.2976    1.3722 C   0  0  1  0  0  0  0  0  0  0  0  0
    7.1306    4.4896    0.2050 O   0  0  0  0  0  0  0  0  0  0  0  0
    6.2015    4.7884   -0.8482 C   0  0  1  0  0  0  0  0  0  0  0  0
    6.4853    3.9434   -1.9742 O   0  0  0  0  0  0  0  0  0  0  0  0
    7.4020    4.4283   -2.8669 C   0  0  0  0  0  0  0  0  0  0  0  0
    7.2810    3.9624   -4.1774 C   0  0  0  0  0  0  0  0  0  0  0  0
    8.1468    4.4253   -5.1760 C   0  0  0  0  0  0  0  0  0  0  0  0
    7.9864    3.9627   -6.4503 O   0  0  0  0  0  0  0  0  0  0  0  0
    9.1490    5.3531   -4.8691 C   0  0  0  0  0  0  0  0  0  0  0  0
   10.0847    5.9203   -5.8674 C   0  0  0  0  0  0  0  0  0  0  0  0
   10.0869    5.6382   -7.0577 O   0  0  0  0  0  0  0  0  0  0  0  0
   11.0654    6.9057   -5.3677 C   0  0  0  0  0  0  0  0  0  0  0  0
   11.0774    7.2389   -4.0704 C   0  0  0  0  0  0  0  0  0  0  0  0
   12.0242    8.2225   -3.4994 C   0  0  0  0  0  0  0  0  0  0  0  0
   12.4482    9.3551   -4.2205 C   0  0  0  0  0  0  0  0  0  0  0  0
   13.3192   10.2935   -3.6509 C   0  0  0  0  0  0  0  0  0  0  0  0
   13.7610   10.1058   -2.3487 C   0  0  0  0  0  0  0  0  0  0  0  0
   14.6072   10.9860   -1.7352 O   0  0  0  0  0  0  0  0  0  0  0  0
   13.3401    8.9987   -1.6209 C   0  0  0  0  0  0  0  0  0  0  0  0
   13.7667    8.8234   -0.3354 O   0  0  0  0  0  0  0  0  0  0  0  0
   12.4820    8.0614   -2.1809 C   0  0  0  0  0  0  0  0  0  0  0  0
   10.2213    6.6901   -3.1346 O   0  0  0  0  0  0  0  0  0  0  0  0
    9.2796    5.7851   -3.5502 C   0  0  0  0  0  0  0  0  0  0  0  0
    8.4249    5.3171   -2.5503 C   0  0  0  0  0  0  0  0  0  0  0  0
    4.7570    4.5199   -0.3843 C   0  0  2  0  0  0  0  0  0  0  0  0
    3.8067    4.8958   -1.3921 O   0  0  0  0  0  0  0  0  0  0  0  0
    4.4757    5.3442    0.8712 C   0  0  1  0  0  0  0  0  0  0  0  0
    3.1680    5.0190    1.3656 O   0  0  0  0  0  0  0  0  0  0  0  0
    5.5234    5.1038    1.9589 C   0  0  2  0  0  0  0  0  0  0  0  0
    5.2492    6.0316    3.0177 O   0  0  0  0  0  0  0  0  0  0  0  0
    8.7348    3.9028    0.9373 H   0  0  0  0  0  0  0  0  0  0  0  0
    7.1363    6.3465    1.1323 H   0  0  0  0  0  0  0  0  0  0  0  0
    6.2803    5.8463   -1.1381 H   0  0  0  0  0  0  0  0  0  0  0  0
    6.4915    3.2521   -4.4097 H   0  0  0  0  0  0  0  0  0  0  0  0
    7.2422    3.3413   -6.4950 H   0  0  0  0  0  0  0  0  0  0  0  0
   11.7447    7.3117   -6.1056 H   0  0  0  0  0  0  0  0  0  0  0  0
   12.0915    9.5325   -5.2332 H   0  0  0  0  0  0  0  0  0  0  0  0
   13.6266   11.1557   -4.2339 H   0  0  0  0  0  0  0  0  0  0  0  0
   14.8268   11.6899   -2.3697 H   0  0  0  0  0  0  0  0  0  0  0  0
   14.3481    9.5905   -0.1614 H   0  0  0  0  0  0  0  0  0  0  0  0
   12.1781    7.2084   -1.5798 H   0  0  0  0  0  0  0  0  0  0  0  0
    8.5857    5.6690   -1.5371 H   0  0  0  0  0  0  0  0  0  0  0  0
    4.6075    3.4515   -0.1875 H   0  0  0  0  0  0  0  0  0  0  0  0
    2.9320    4.8323   -0.9575 H   0  0  0  0  0  0  0  0  0  0  0  0
    4.4333    6.4111    0.6144 H   0  0  0  0  0  0  0  0  0  0  0  0
    3.0903    5.4946    2.2185 H   0  0  0  0  0  0  0  0  0  0  0  0
    5.3975    4.0943    2.3697 H   0  0  0  0  0  0  0  0  0  0  0  0
    5.9202    5.8832    3.7202 H   0  0  0  0  0  0  0  0  0  0  0  0
  1  2  2  0  0  0  0
  2  3  1  0  0  0  0
  3 34  1  0  0  0  0
  4  5  1  0  0  0  0
  4 32  1  0  0  0  0
  4  2  1  0  0  0  0
  4 35  1  6  0  0  0
  5  6  1  0  0  0  0
  6 28  1  0  0  0  0
  6  7  1  0  0  0  0
  6 36  1  6  0  0  0
  7  8  1  0  0  0  0
  8  9  1  0  0  0  0
  8 27  2  0  0  0  0
  9 10  2  0  0  0  0
  9 37  1  0  0  0  0
 10 11  1  0  0  0  0
 10 12  1  0  0  0  0
 11 38  1  0  0  0  0
 12 13  1  0  0  0  0
 12 26  2  0  0  0  0
 13 14  2  0  0  0  0
 13 15  1  0  0  0  0
 15 16  2  0  0  0  0
 15 39  1  0  0  0  0
 16 17  1  0  0  0  0
 16 25  1  0  0  0  0
 17 18  1  0  0  0  0
 17 24  2  0  0  0  0
 18 19  2  0  0  0  0
 18 40  1  0  0  0  0
 19 20  1  0  0  0  0
 19 41  1  0  0  0  0
 20 21  1  0  0  0  0
 20 22  2  0  0  0  0
 21 42  1  0  0  0  0
 22 23  1  0  0  0  0
 22 24  1  0  0  0  0
 23 43  1  0  0  0  0
 24 44  1  0  0  0  0
 25 26  1  0  0  0  0
 26 27  1  0  0  0  0
 27 45  1  0  0  0  0
 28 29  1  0  0  0  0
 28 30  1  0  0  0  0
 28 46  1  1  0  0  0
 29 47  1  0  0  0  0
 30 31  1  0  0  0  0
 30 32  1  0  0  0  0
 30 48  1  6  0  0  0
 31 49  1  0  0  0  0
 32 33  1  0  0  0  0
 32 50  1  1  0  0  0
 33 51  1  0  0  0  0
M  END
$$$$
