CHEBI:18333
 OpenBabel04252409243D

 22 21  0  0  1  0  0  0  0  0999 V2000
    6.7998    0.1601    4.4677 O   0  0  0  0  0  0  0  0  0  0  0  0
    6.7697    0.9293    3.2559 C   0  0  0  0  0  0  0  0  0  0  0  0
    5.3900    1.5801    3.1396 C   0  0  1  0  0  0  0  0  0  0  0  0
    5.0985    2.2537    4.3895 O   0  0  0  0  0  0  0  0  0  0  0  0
    5.2516    2.6304    2.0240 C   0  0  0  0  0  0  0  0  0  0  0  0
    3.9753    3.2748    2.1894 O   0  0  0  0  0  0  0  0  0  0  0  0
    5.3551    2.0551    0.6070 C   0  0  2  0  0  0  0  0  0  0  0  0
    6.6599    1.5129    0.3690 O   0  0  0  0  0  0  0  0  0  0  0  0
    5.0815    3.1209   -0.4618 C   0  0  0  0  0  0  0  0  0  0  0  0
    5.3270    2.5348   -1.7468 O   0  0  0  0  0  0  0  0  0  0  0  0
    6.3582   -0.6869    4.2765 H   0  0  0  0  0  0  0  0  0  0  0  0
    7.0015    0.2623    2.4228 H   0  0  0  0  0  0  0  0  0  0  0  0
    7.5532    1.6882    3.3426 H   0  0  0  0  0  0  0  0  0  0  0  0
    4.6161    0.8098    3.0430 H   0  0  0  0  0  0  0  0  0  0  0  0
    5.5493    1.7167    5.0756 H   0  0  0  0  0  0  0  0  0  0  0  0
    6.0143    3.4052    2.1718 H   0  0  0  0  0  0  0  0  0  0  0  0
    3.8882    3.3899    3.1607 H   0  0  0  0  0  0  0  0  0  0  0  0
    4.6379    1.2362    0.4740 H   0  0  0  0  0  0  0  0  0  0  0  0
    6.7079    1.4217   -0.6070 H   0  0  0  0  0  0  0  0  0  0  0  0
    5.7668    3.9679   -0.3543 H   0  0  0  0  0  0  0  0  0  0  0  0
    4.0473    3.4756   -0.4272 H   0  0  0  0  0  0  0  0  0  0  0  0
    5.0896    3.2123   -2.4058 H   0  0  0  0  0  0  0  0  0  0  0  0
  1  2  1  0  0  0  0
  1 11  1  0  0  0  0
  2  3  1  0  0  0  0
  2 12  1  0  0  0  0
  2 13  1  0  0  0  0
  3  4  1  0  0  0  0
  3  5  1  0  0  0  0
  3 14  1  6  0  0  0
  4 15  1  0  0  0  0
  5  6  1  0  0  0  0
  5 16  1  0  0  0  0
  6 17  1  0  0  0  0
  7  9  1  0  0  0  0
  7  8  1  0  0  0  0
  7  5  1  0  0  0  0
  7 18  1  6  0  0  0
  8 19  1  0  0  0  0
  9 10  1  0  0  0  0
  9 20  1  0  0  0  0
  9 21  1  0  0  0  0
 10 22  1  0  0  0  0
M  END
$$$$
