CHEBI:17380
 OpenBabel04242416263D

 28 28  0  0  1  0  0  0  0  0999 V2000
   -0.1242   -3.0688    1.7178 N   0  0  0  0  0  0  0  0  0  0  0  0
   -0.3973   -2.1304    0.6809 C   0  0  0  0  0  0  0  0  0  0  0  0
   -0.3531   -0.7721    1.0371 C   0  0  0  0  0  0  0  0  0  0  0  0
    0.1115   -0.4342    2.2802 O   0  0  0  0  0  0  0  0  0  0  0  0
   -0.7449    0.2365    0.1712 C   0  0  0  0  0  0  0  0  0  0  0  0
   -1.2249   -0.1077   -1.0872 C   0  0  0  0  0  0  0  0  0  0  0  0
   -1.3113   -1.4538   -1.4636 C   0  0  0  0  0  0  0  0  0  0  0  0
   -0.9105   -2.4783   -0.5847 C   0  0  0  0  0  0  0  0  0  0  0  0
   -1.0039   -3.9184   -1.0003 C   0  0  0  0  0  0  0  0  0  0  0  0
   -0.5708   -4.8097   -0.2636 O   0  0  0  0  0  0  0  0  0  0  0  0
   -1.6577   -4.2630   -2.3273 C   0  0  0  0  0  0  0  0  0  0  0  0
   -1.6064   -5.7661   -2.6120 C   0  0  2  0  0  0  0  0  0  0  0  0
   -1.9434   -5.9851   -4.0439 N   0  0  0  0  0  0  0  0  0  0  0  0
   -2.6164   -6.5332   -1.7348 C   0  0  0  0  0  0  0  0  0  0  0  0
   -3.7059   -6.9210   -2.1394 O   0  0  0  0  0  0  0  0  0  0  0  0
   -2.2012   -6.7536   -0.4687 O   0  0  0  0  0  0  0  0  0  0  0  0
   -0.9512   -3.1667    2.3102 H   0  0  0  0  0  0  0  0  0  0  0  0
    0.0503   -3.9920    1.2993 H   0  0  0  0  0  0  0  0  0  0  0  0
    0.4267   -1.2860    2.6494 H   0  0  0  0  0  0  0  0  0  0  0  0
   -0.6787    1.2762    0.4777 H   0  0  0  0  0  0  0  0  0  0  0  0
   -1.5374    0.6728   -1.7777 H   0  0  0  0  0  0  0  0  0  0  0  0
   -1.7014   -1.6677   -2.4550 H   0  0  0  0  0  0  0  0  0  0  0  0
   -1.1031   -3.7369   -3.1140 H   0  0  0  0  0  0  0  0  0  0  0  0
   -2.6955   -3.9100   -2.3109 H   0  0  0  0  0  0  0  0  0  0  0  0
   -0.6069   -6.1835   -2.4465 H   0  0  0  0  0  0  0  0  0  0  0  0
   -2.9472   -5.8018   -4.1566 H   0  0  0  0  0  0  0  0  0  0  0  0
   -1.8745   -6.9888   -4.2338 H   0  0  0  0  0  0  0  0  0  0  0  0
   -1.3486   -6.3013   -0.2540 H   0  0  0  0  0  0  0  0  0  0  0  0
  1  2  1  0  0  0  0
  1 17  1  0  0  0  0
  1 18  1  0  0  0  0
  2  3  1  0  0  0  0
  2  8  2  0  0  0  0
  3  4  1  0  0  0  0
  3  5  2  0  0  0  0
  4 19  1  0  0  0  0
  5  6  1  0  0  0  0
  5 20  1  0  0  0  0
  6  7  2  0  0  0  0
  6 21  1  0  0  0  0
  7  8  1  0  0  0  0
  7 22  1  0  0  0  0
  8  9  1  0  0  0  0
  9 10  2  0  0  0  0
  9 11  1  0  0  0  0
 11 23  1  0  0  0  0
 11 24  1  0  0  0  0
 12 14  1  0  0  0  0
 12 13  1  0  0  0  0
 12 11  1  0  0  0  0
 12 25  1  1  0  0  0
 13 26  1  0  0  0  0
 13 27  1  0  0  0  0
 14 15  2  0  0  0  0
 14 16  1  0  0  0  0
 16 28  1  0  0  0  0
M  END
$$$$
