CHEBI:16942
 OpenBabel04242415343D

114114  0  0  1  0  0  0  0  0999 V2000
   14.2962    2.9374   -9.4944 C   0  0  0  0  0  0  0  0  0  0  0  0
   13.4692    2.0953   -8.5351 C   0  0  0  0  0  0  0  0  0  0  0  0
   12.7051    2.9233   -7.4991 C   0  0  0  0  0  0  0  0  0  0  0  0
   13.5668    3.7779   -6.5615 C   0  0  0  0  0  0  0  0  0  0  0  0
   14.5806    3.0154   -5.6983 C   0  0  0  0  0  0  0  0  0  0  0  0
   13.9248    2.0323   -4.7247 C   0  0  0  0  0  0  0  0  0  0  0  0
   14.9334    1.2862   -3.8443 C   0  0  0  0  0  0  0  0  0  0  0  0
   15.4928    2.1247   -2.6882 C   0  0  0  0  0  0  0  0  0  0  0  0
   16.4243    1.2767   -1.8123 C   0  0  0  0  0  0  0  0  0  0  0  0
   16.9190    1.9761   -0.5420 C   0  0  0  0  0  0  0  0  0  0  0  0
   17.6952    3.2869   -0.7185 C   0  0  0  0  0  0  0  0  0  0  0  0
   19.0624    3.1414   -1.4052 C   0  0  1  0  0  0  0  0  0  0  0  0
   18.9161    2.7416   -2.7625 O   0  0  0  0  0  0  0  0  0  0  0  0
   19.9091    4.4215   -1.3292 C   0  0  0  0  0  0  0  0  0  0  0  0
   19.2375    5.6119   -1.9887 C   0  0  0  0  0  0  0  0  0  0  0  0
   18.3206    5.4924   -2.7962 O   0  0  0  0  0  0  0  0  0  0  0  0
   19.7668    6.8334   -1.6279 N   0  0  0  0  0  0  0  0  0  0  0  0
   19.2676    8.0962   -2.2085 C   0  0  1  0  0  0  0  0  0  0  0  0
   19.3499    9.2550   -1.2069 C   0  0  1  0  0  0  0  0  0  0  0  0
   20.6874    9.5152   -0.8356 O   0  0  0  0  0  0  0  0  0  0  0  0
   20.8857   10.4272    0.4638 P   0  0  0  0  0  0  0  0  0  0  0  0
   20.2253    9.9670    1.7136 O   0  0  0  0  0  0  0  0  0  0  0  0
   22.4690   10.5842    0.5675 O   0  0  0  0  0  0  0  0  0  0  0  0
   20.4604   11.8891   -0.0111 O   0  0  0  0  0  0  0  0  0  0  0  0
   18.7254   10.4064   -1.7697 O   0  0  0  0  0  0  0  0  0  0  0  0
   19.4322   10.9149   -2.9065 C   0  0  2  0  0  0  0  0  0  0  0  0
   18.6345   12.1166   -3.4479 C   0  0  0  0  0  0  0  0  0  0  0  0
   19.2864   12.8114   -4.5021 O   0  0  0  0  0  0  0  0  0  0  0  0
   19.6624    9.8802   -4.0233 C   0  0  1  0  0  0  0  0  0  0  0  0
   20.7392   10.3945   -4.8333 O   0  0  0  0  0  0  0  0  0  0  0  0
   19.9876    8.4567   -3.5253 C   0  0  2  0  0  0  0  0  0  0  0  0
   19.5078    7.4847   -4.4997 O   0  0  0  0  0  0  0  0  0  0  0  0
   20.1438    7.3499   -5.6832 C   0  0  0  0  0  0  0  0  0  0  0  0
   21.0363    8.0906   -6.0779 O   0  0  0  0  0  0  0  0  0  0  0  0
   19.6674    6.1167   -6.3951 C   0  0  0  0  0  0  0  0  0  0  0  0
   20.7683    5.0630   -6.3704 C   0  0  2  0  0  0  0  0  0  0  0  0
   20.3561    4.0027   -7.2301 O   0  0  0  0  0  0  0  0  0  0  0  0
   21.0020    4.5222   -4.9504 C   0  0  0  0  0  0  0  0  0  0  0  0
   22.3626    3.8551   -4.7550 C   0  0  0  0  0  0  0  0  0  0  0  0
   22.4947    2.4713   -5.3816 C   0  0  0  0  0  0  0  0  0  0  0  0
   23.8057    1.7466   -5.0420 C   0  0  0  0  0  0  0  0  0  0  0  0
   25.0558    2.2591   -5.7734 C   0  0  0  0  0  0  0  0  0  0  0  0
   25.6581    3.5179   -5.1533 C   0  0  0  0  0  0  0  0  0  0  0  0
   26.9473    3.9681   -5.8374 C   0  0  0  0  0  0  0  0  0  0  0  0
   27.3780    5.3252   -5.2690 C   0  0  0  0  0  0  0  0  0  0  0  0
   28.5586    5.9580   -6.0011 C   0  0  0  0  0  0  0  0  0  0  0  0
   29.8363    5.1284   -5.9085 C   0  0  0  0  0  0  0  0  0  0  0  0
   31.0098    5.8580   -6.5409 C   0  0  0  0  0  0  0  0  0  0  0  0
   14.7193    2.3049  -10.2816 H   0  0  0  0  0  0  0  0  0  0  0  0
   15.1278    3.4282   -8.9807 H   0  0  0  0  0  0  0  0  0  0  0  0
   13.6817    3.7063   -9.9736 H   0  0  0  0  0  0  0  0  0  0  0  0
   14.1140    1.3611   -8.0404 H   0  0  0  0  0  0  0  0  0  0  0  0
   12.7400    1.5217   -9.1208 H   0  0  0  0  0  0  0  0  0  0  0  0
   12.0748    2.2493   -6.9075 H   0  0  0  0  0  0  0  0  0  0  0  0
   12.0118    3.5902   -8.0279 H   0  0  0  0  0  0  0  0  0  0  0  0
   12.8959    4.3407   -5.9002 H   0  0  0  0  0  0  0  0  0  0  0  0
   14.1053    4.5292   -7.1511 H   0  0  0  0  0  0  0  0  0  0  0  0
   15.1623    3.7532   -5.1334 H   0  0  0  0  0  0  0  0  0  0  0  0
   15.2934    2.4851   -6.3399 H   0  0  0  0  0  0  0  0  0  0  0  0
   13.3701    1.2805   -5.2976 H   0  0  0  0  0  0  0  0  0  0  0  0
   13.1944    2.5552   -4.0958 H   0  0  0  0  0  0  0  0  0  0  0  0
   15.7559    0.9059   -4.4621 H   0  0  0  0  0  0  0  0  0  0  0  0
   14.4256    0.4096   -3.4223 H   0  0  0  0  0  0  0  0  0  0  0  0
   14.6649    2.5063   -2.0785 H   0  0  0  0  0  0  0  0  0  0  0  0
   16.0319    2.9901   -3.0855 H   0  0  0  0  0  0  0  0  0  0  0  0
   17.2733    0.9217   -2.4057 H   0  0  0  0  0  0  0  0  0  0  0  0
   15.8835    0.3745   -1.4974 H   0  0  0  0  0  0  0  0  0  0  0  0
   17.5411    1.2703    0.0224 H   0  0  0  0  0  0  0  0  0  0  0  0
   16.0483    2.1870    0.0922 H   0  0  0  0  0  0  0  0  0  0  0  0
   17.8570    3.7110    0.2807 H   0  0  0  0  0  0  0  0  0  0  0  0
   17.0587    3.9936   -1.2593 H   0  0  0  0  0  0  0  0  0  0  0  0
   19.6239    2.3422   -0.9071 H   0  0  0  0  0  0  0  0  0  0  0  0
   18.3956    3.4407   -3.2105 H   0  0  0  0  0  0  0  0  0  0  0  0
   20.8597    4.2617   -1.8515 H   0  0  0  0  0  0  0  0  0  0  0  0
   20.1274    4.6619   -0.2831 H   0  0  0  0  0  0  0  0  0  0  0  0
   20.6364    6.8584   -1.1049 H   0  0  0  0  0  0  0  0  0  0  0  0
   18.2064    7.9383   -2.4465 H   0  0  0  0  0  0  0  0  0  0  0  0
   18.7798    8.9786   -0.3123 H   0  0  0  0  0  0  0  0  0  0  0  0
   22.7180   11.1527    1.3180 H   0  0  0  0  0  0  0  0  0  0  0  0
   19.4909   11.9857   -0.0781 H   0  0  0  0  0  0  0  0  0  0  0  0
   20.4052   11.3030   -2.5785 H   0  0  0  0  0  0  0  0  0  0  0  0
   18.4454   12.8315   -2.6402 H   0  0  0  0  0  0  0  0  0  0  0  0
   17.6500   11.7878   -3.8023 H   0  0  0  0  0  0  0  0  0  0  0  0
   20.1231   12.3467   -4.7098 H   0  0  0  0  0  0  0  0  0  0  0  0
   18.7823    9.8324   -4.6751 H   0  0  0  0  0  0  0  0  0  0  0  0
   21.0078    9.6900   -5.4661 H   0  0  0  0  0  0  0  0  0  0  0  0
   21.0709    8.3149   -3.4126 H   0  0  0  0  0  0  0  0  0  0  0  0
   19.3982    6.3885   -7.4221 H   0  0  0  0  0  0  0  0  0  0  0  0
   18.7462    5.7336   -5.9386 H   0  0  0  0  0  0  0  0  0  0  0  0
   21.6928    5.4935   -6.7746 H   0  0  0  0  0  0  0  0  0  0  0  0
   21.1431    3.6789   -7.7003 H   0  0  0  0  0  0  0  0  0  0  0  0
   20.2050    3.8286   -4.6726 H   0  0  0  0  0  0  0  0  0  0  0  0
   20.9833    5.3531   -4.2380 H   0  0  0  0  0  0  0  0  0  0  0  0
   22.5610    3.7756   -3.6787 H   0  0  0  0  0  0  0  0  0  0  0  0
   23.0977    4.5437   -5.1650 H   0  0  0  0  0  0  0  0  0  0  0  0
   22.3934    2.5268   -6.4683 H   0  0  0  0  0  0  0  0  0  0  0  0
   21.6654    1.8515   -5.0170 H   0  0  0  0  0  0  0  0  0  0  0  0
   23.6701    0.6966   -5.3333 H   0  0  0  0  0  0  0  0  0  0  0  0
   23.9707    1.7436   -3.9580 H   0  0  0  0  0  0  0  0  0  0  0  0
   24.8249    2.4287   -6.8319 H   0  0  0  0  0  0  0  0  0  0  0  0
   25.8134    1.4659   -5.7412 H   0  0  0  0  0  0  0  0  0  0  0  0
   25.8419    3.3569   -4.0848 H   0  0  0  0  0  0  0  0  0  0  0  0
   24.9618    4.3475   -5.2371 H   0  0  0  0  0  0  0  0  0  0  0  0
   26.7845    4.0555   -6.9183 H   0  0  0  0  0  0  0  0  0  0  0  0
   27.7266    3.2156   -5.6779 H   0  0  0  0  0  0  0  0  0  0  0  0
   27.6170    5.2176   -4.2039 H   0  0  0  0  0  0  0  0  0  0  0  0
   26.5352    6.0262   -5.3299 H   0  0  0  0  0  0  0  0  0  0  0  0
   28.7370    6.9495   -5.5661 H   0  0  0  0  0  0  0  0  0  0  0  0
   28.2940    6.1193   -7.0533 H   0  0  0  0  0  0  0  0  0  0  0  0
   29.7023    4.1687   -6.4187 H   0  0  0  0  0  0  0  0  0  0  0  0
   30.0669    4.9126   -4.8589 H   0  0  0  0  0  0  0  0  0  0  0  0
   30.8073    6.0877   -7.5919 H   0  0  0  0  0  0  0  0  0  0  0  0
   31.9099    5.2379   -6.4939 H   0  0  0  0  0  0  0  0  0  0  0  0
   31.2146    6.7969   -6.0167 H   0  0  0  0  0  0  0  0  0  0  0  0
  1  2  1  0  0  0  0
  1 49  1  0  0  0  0
  1 50  1  0  0  0  0
  1 51  1  0  0  0  0
  2  3  1  0  0  0  0
  2 52  1  0  0  0  0
  2 53  1  0  0  0  0
  3  4  1  0  0  0  0
  3 54  1  0  0  0  0
  3 55  1  0  0  0  0
  4  5  1  0  0  0  0
  4 56  1  0  0  0  0
  4 57  1  0  0  0  0
  5  6  1  0  0  0  0
  5 58  1  0  0  0  0
  5 59  1  0  0  0  0
  6  7  1  0  0  0  0
  6 60  1  0  0  0  0
  6 61  1  0  0  0  0
  7  8  1  0  0  0  0
  7 62  1  0  0  0  0
  7 63  1  0  0  0  0
  8  9  1  0  0  0  0
  8 64  1  0  0  0  0
  8 65  1  0  0  0  0
  9 10  1  0  0  0  0
  9 66  1  0  0  0  0
  9 67  1  0  0  0  0
 10 11  1  0  0  0  0
 10 68  1  0  0  0  0
 10 69  1  0  0  0  0
 11 12  1  0  0  0  0
 11 70  1  0  0  0  0
 11 71  1  0  0  0  0
 12 13  1  0  0  0  0
 12 14  1  0  0  0  0
 12 72  1  1  0  0  0
 13 73  1  0  0  0  0
 14 15  1  0  0  0  0
 14 74  1  0  0  0  0
 14 75  1  0  0  0  0
 15 16  2  0  0  0  0
 15 17  1  0  0  0  0
 17 18  1  0  0  0  0
 17 76  1  0  0  0  0
 18 19  1  0  0  0  0
 18 31  1  0  0  0  0
 18 77  1  6  0  0  0
 19 20  1  0  0  0  0
 19 25  1  0  0  0  0
 19 78  1  1  0  0  0
 20 21  1  0  0  0  0
 21 22  2  0  0  0  0
 21 23  1  0  0  0  0
 21 24  1  0  0  0  0
 23 79  1  0  0  0  0
 24 80  1  0  0  0  0
 25 26  1  0  0  0  0
 26 27  1  0  0  0  0
 26 29  1  0  0  0  0
 26 81  1  1  0  0  0
 27 28  1  0  0  0  0
 27 82  1  0  0  0  0
 27 83  1  0  0  0  0
 28 84  1  0  0  0  0
 29 30  1  0  0  0  0
 29 31  1  0  0  0  0
 29 85  1  6  0  0  0
 30 86  1  0  0  0  0
 31 32  1  0  0  0  0
 31 87  1  1  0  0  0
 32 33  1  0  0  0  0
 33 34  2  0  0  0  0
 33 35  1  0  0  0  0
 35 88  1  0  0  0  0
 35 89  1  0  0  0  0
 36 38  1  0  0  0  0
 36 37  1  0  0  0  0
 36 35  1  0  0  0  0
 36 90  1  6  0  0  0
 37 91  1  0  0  0  0
 38 39  1  0  0  0  0
 38 92  1  0  0  0  0
 38 93  1  0  0  0  0
 39 40  1  0  0  0  0
 39 94  1  0  0  0  0
 39 95  1  0  0  0  0
 40 41  1  0  0  0  0
 40 96  1  0  0  0  0
 40 97  1  0  0  0  0
 41 42  1  0  0  0  0
 41 98  1  0  0  0  0
 41 99  1  0  0  0  0
 42 43  1  0  0  0  0
 42100  1  0  0  0  0
 42101  1  0  0  0  0
 43 44  1  0  0  0  0
 43102  1  0  0  0  0
 43103  1  0  0  0  0
 44 45  1  0  0  0  0
 44104  1  0  0  0  0
 44105  1  0  0  0  0
 45 46  1  0  0  0  0
 45106  1  0  0  0  0
 45107  1  0  0  0  0
 46 47  1  0  0  0  0
 46108  1  0  0  0  0
 46109  1  0  0  0  0
 47 48  1  0  0  0  0
 47110  1  0  0  0  0
 47111  1  0  0  0  0
 48112  1  0  0  0  0
 48113  1  0  0  0  0
 48114  1  0  0  0  0
M  END
$$$$
