CHEBI:18039
 OpenBabel04242423273D

 37 36  0  0  1  0  0  0  0  0999 V2000
    6.9668   10.3330  -14.4365 N   0  0  0  0  0  0  0  0  0  0  0  0
    5.8886    9.6506  -14.6242 C   0  0  0  0  0  0  0  0  0  0  0  0
    5.1040    9.1096  -13.6575 N   0  0  0  0  0  0  0  0  0  0  0  0
    5.4825    9.0099  -12.2560 C   0  0  0  0  0  0  0  0  0  0  0  0
    4.2990    8.5668  -11.3875 C   0  0  0  0  0  0  0  0  0  0  0  0
    3.2147    9.4864  -11.3417 O   0  0  0  0  0  0  0  0  0  0  0  0
    3.4598   10.9981  -10.8769 P   0  0  0  0  0  0  0  0  0  0  0  0
    4.1381   11.8944  -11.8542 O   0  0  0  0  0  0  0  0  0  0  0  0
    1.9797   11.5167  -10.5477 O   0  0  0  0  0  0  0  0  0  0  0  0
    4.1622   10.9437   -9.4352 O   0  0  0  0  0  0  0  0  0  0  0  0
    3.4464   10.4065   -8.3272 C   0  0  0  0  0  0  0  0  0  0  0  0
    4.4319   10.1795   -7.1746 C   0  0  2  0  0  0  0  0  0  0  0  0
    5.3287   11.3655   -6.9609 N   0  0  0  0  0  0  0  0  0  0  0  0
    5.3073    8.9616   -7.4932 C   0  0  0  0  0  0  0  0  0  0  0  0
    4.8900    7.8601   -7.8186 O   0  0  0  0  0  0  0  0  0  0  0  0
    6.6287    9.2524   -7.3770 O   0  0  0  0  0  0  0  0  0  0  0  0
    5.5039    9.4630  -15.8978 N   0  0  0  0  0  0  0  0  0  0  0  0
    4.0577    9.0742  -16.4671 P   0  0  0  0  0  0  0  0  0  0  0  0
    3.2435    7.9455  -15.9172 O   0  0  0  0  0  0  0  0  0  0  0  0
    3.1561   10.3967  -16.5019 O   0  0  0  0  0  0  0  0  0  0  0  0
    4.2279    8.8699  -18.0482 O   0  0  0  0  0  0  0  0  0  0  0  0
    7.1378   10.4467  -13.4385 H   0  0  0  0  0  0  0  0  0  0  0  0
    4.5162    8.3388  -13.9709 H   0  0  0  0  0  0  0  0  0  0  0  0
    5.8587    9.9702  -11.8936 H   0  0  0  0  0  0  0  0  0  0  0  0
    6.2902    8.2760  -12.1582 H   0  0  0  0  0  0  0  0  0  0  0  0
    4.6429    8.3887  -10.3664 H   0  0  0  0  0  0  0  0  0  0  0  0
    3.8982    7.6182  -11.7615 H   0  0  0  0  0  0  0  0  0  0  0  0
    1.6212   11.9809  -11.3275 H   0  0  0  0  0  0  0  0  0  0  0  0
    2.9410    9.4799   -8.6171 H   0  0  0  0  0  0  0  0  0  0  0  0
    2.6916   11.1397   -8.0229 H   0  0  0  0  0  0  0  0  0  0  0  0
    3.9082    9.9602   -6.2381 H   0  0  0  0  0  0  0  0  0  0  0  0
    4.8049   12.0544   -6.4123 H   0  0  0  0  0  0  0  0  0  0  0  0
    5.4222   11.8234   -7.8808 H   0  0  0  0  0  0  0  0  0  0  0  0
    6.6665   10.2016   -7.0900 H   0  0  0  0  0  0  0  0  0  0  0  0
    6.0905   10.0052  -16.5130 H   0  0  0  0  0  0  0  0  0  0  0  0
    2.2142   10.1863  -16.6192 H   0  0  0  0  0  0  0  0  0  0  0  0
    3.4429    8.4551  -18.4457 H   0  0  0  0  0  0  0  0  0  0  0  0
  1  2  2  0  0  0  0
  1 22  1  0  0  0  0
  2  3  1  0  0  0  0
  2 17  1  0  0  0  0
  3  4  1  0  0  0  0
  3 23  1  0  0  0  0
  4  5  1  0  0  0  0
  4 24  1  0  0  0  0
  4 25  1  0  0  0  0
  5  6  1  0  0  0  0
  5 26  1  0  0  0  0
  5 27  1  0  0  0  0
  6  7  1  0  0  0  0
  7  8  2  0  0  0  0
  7  9  1  0  0  0  0
  7 10  1  0  0  0  0
  9 28  1  0  0  0  0
 10 11  1  0  0  0  0
 11 29  1  0  0  0  0
 11 30  1  0  0  0  0
 12 14  1  0  0  0  0
 12 13  1  0  0  0  0
 12 11  1  0  0  0  0
 12 31  1  1  0  0  0
 13 32  1  0  0  0  0
 13 33  1  0  0  0  0
 14 15  2  0  0  0  0
 14 16  1  0  0  0  0
 16 34  1  0  0  0  0
 17 18  1  0  0  0  0
 17 35  1  0  0  0  0
 18 19  2  0  0  0  0
 18 20  1  0  0  0  0
 18 21  1  0  0  0  0
 20 36  1  0  0  0  0
 21 37  1  0  0  0  0
M  END
$$$$
