CHEBI:20331
 OpenBabel04252409373D

 14 14  0  0  0  0  0  0  0  0999 V2000
   -3.3864    0.0043   -0.1498 N   0  0  0  0  0  0  0  0  0  0  0  0
   -1.9960    0.0030    0.0028 C   0  0  0  0  0  0  0  0  0  0  0  0
   -1.2828    1.2048   -0.0393 C   0  0  0  0  0  0  0  0  0  0  0  0
    0.1152    1.2074   -0.0200 C   0  0  0  0  0  0  0  0  0  0  0  0
    0.8070   -0.0003   -0.0027 C   0  0  0  0  0  0  0  0  0  0  0  0
    2.5272   -0.0026    0.0084 Cl  0  0  0  0  0  0  0  0  0  0  0  0
    0.1121   -1.2064   -0.0179 C   0  0  0  0  0  0  0  0  0  0  0  0
   -1.2858   -1.2007   -0.0370 C   0  0  0  0  0  0  0  0  0  0  0  0
   -3.8386    0.8481    0.1886 H   0  0  0  0  0  0  0  0  0  0  0  0
   -3.8405   -0.8376    0.1908 H   0  0  0  0  0  0  0  0  0  0  0  0
   -1.8114    2.1533   -0.0874 H   0  0  0  0  0  0  0  0  0  0  0  0
    0.6526    2.1513   -0.0354 H   0  0  0  0  0  0  0  0  0  0  0  0
    0.6473   -2.1518   -0.0318 H   0  0  0  0  0  0  0  0  0  0  0  0
   -1.8167   -2.1479   -0.0834 H   0  0  0  0  0  0  0  0  0  0  0  0
  1  2  1  0  0  0  0
  1  9  1  0  0  0  0
  1 10  1  0  0  0  0
  2  3  1  0  0  0  0
  2  8  2  0  0  0  0
  3  4  2  0  0  0  0
  3 11  1  0  0  0  0
  4  5  1  0  0  0  0
  4 12  1  0  0  0  0
  5  6  1  0  0  0  0
  5  7  2  0  0  0  0
  7  8  1  0  0  0  0
  7 13  1  0  0  0  0
  8 14  1  0  0  0  0
M  END
$$$$
