CHEBI:17009
 OpenBabel04242415413D

 63 66  0  0  1  0  0  0  0  0999 V2000
   -0.8949   -5.0345   -0.3377 C   0  0  0  0  0  0  0  0  0  0  0  0
   -1.7241   -4.1539    0.5869 C   0  0  2  0  0  0  0  0  0  0  0  0
   -2.1134   -2.9850   -0.1488 O   0  0  0  0  0  0  0  0  0  0  0  0
   -3.0165   -2.1437    0.5813 C   0  0  0  0  0  0  0  0  0  0  0  0
   -3.3085   -0.9805   -0.1832 O   0  0  0  0  0  0  0  0  0  0  0  0
   -2.0766   -0.2724   -0.9200 P   0  0  0  0  0  0  0  0  0  0  0  0
   -0.7582   -0.3333   -0.2177 O   0  0  0  0  0  0  0  0  0  0  0  0
   -2.0195   -1.0723   -2.3112 O   0  0  0  0  0  0  0  0  0  0  0  0
   -2.6027    1.1520   -1.3749 O   0  0  0  0  0  0  0  0  0  0  0  0
   -3.0736    2.2849   -0.3736 P   0  0  0  0  0  0  0  0  0  0  0  0
   -2.3218    2.3761    0.9102 O   0  0  0  0  0  0  0  0  0  0  0  0
   -4.6261    1.9794   -0.1244 O   0  0  0  0  0  0  0  0  0  0  0  0
   -3.0933    3.6439   -1.2370 O   0  0  0  0  0  0  0  0  0  0  0  0
   -4.0077    3.7306   -2.3226 C   0  0  0  0  0  0  0  0  0  0  0  0
   -3.6232    4.8482   -3.2957 C   0  0  1  0  0  0  0  0  0  0  0  0
   -3.6968    6.1272   -2.6177 O   0  0  0  0  0  0  0  0  0  0  0  0
   -2.4097    6.7751   -2.7302 C   0  0  1  0  0  0  0  0  0  0  0  0
   -2.1536    7.5509   -1.5278 N   0  0  0  0  0  0  0  0  0  0  0  0
   -3.1035    8.0919   -0.6943 C   0  0  0  0  0  0  0  0  0  0  0  0
   -2.5678    8.7807    0.2945 N   0  0  0  0  0  0  0  0  0  0  0  0
   -1.2180    8.6922    0.0783 C   0  0  0  0  0  0  0  0  0  0  0  0
   -0.1056    9.2291    0.8318 C   0  0  0  0  0  0  0  0  0  0  0  0
   -0.1847    9.9172    1.8454 O   0  0  0  0  0  0  0  0  0  0  0  0
    1.1194    8.8794    0.2791 N   0  0  0  0  0  0  0  0  0  0  0  0
    1.2761    8.1465   -0.8786 C   0  0  0  0  0  0  0  0  0  0  0  0
    2.5519    7.9103   -1.2740 N   0  0  0  0  0  0  0  0  0  0  0  0
    0.2811    7.6765   -1.5839 N   0  0  0  0  0  0  0  0  0  0  0  0
   -0.9354    7.9615   -1.0542 C   0  0  0  0  0  0  0  0  0  0  0  0
   -1.3963    5.6587   -3.0010 C   0  0  2  0  0  0  0  0  0  0  0  0
   -0.2358    6.0801   -3.7291 O   0  0  0  0  0  0  0  0  0  0  0  0
   -2.2108    4.7086   -3.8541 C   0  0  2  0  0  0  0  0  0  0  0  0
   -2.1835    5.1682   -5.2158 O   0  0  0  0  0  0  0  0  0  0  0  0
   -2.4984   -1.7265    1.9797 C   0  0  1  0  0  0  0  0  0  0  0  0
   -3.5748   -1.1905    2.7695 O   0  0  0  0  0  0  0  0  0  0  0  0
   -1.8679   -2.9025    2.7306 C   0  0  2  0  0  0  0  0  0  0  0  0
   -1.1414   -2.3902    3.8574 O   0  0  0  0  0  0  0  0  0  0  0  0
   -0.9406   -3.7207    1.8309 C   0  0  2  0  0  0  0  0  0  0  0  0
    0.2012   -2.9202    1.4887 O   0  0  0  0  0  0  0  0  0  0  0  0
   -1.4968   -5.3468   -1.1985 H   0  0  0  0  0  0  0  0  0  0  0  0
   -0.5463   -5.9333    0.1810 H   0  0  0  0  0  0  0  0  0  0  0  0
   -0.0296   -4.4972   -0.7386 H   0  0  0  0  0  0  0  0  0  0  0  0
   -2.6248   -4.7109    0.8760 H   0  0  0  0  0  0  0  0  0  0  0  0
   -3.9659   -2.6816    0.6887 H   0  0  0  0  0  0  0  0  0  0  0  0
   -1.5930   -1.9396   -2.1706 H   0  0  0  0  0  0  0  0  0  0  0  0
   -4.8192    1.9520    0.8335 H   0  0  0  0  0  0  0  0  0  0  0  0
   -5.0000    3.9345   -1.9070 H   0  0  0  0  0  0  0  0  0  0  0  0
   -4.0386    2.7756   -2.8578 H   0  0  0  0  0  0  0  0  0  0  0  0
   -4.3626    4.8766   -4.1043 H   0  0  0  0  0  0  0  0  0  0  0  0
   -2.4532    7.4966   -3.5558 H   0  0  0  0  0  0  0  0  0  0  0  0
   -4.1652    7.9501   -0.8563 H   0  0  0  0  0  0  0  0  0  0  0  0
    1.9221    9.2561    0.7541 H   0  0  0  0  0  0  0  0  0  0  0  0
    3.2424    7.7949   -0.5429 H   0  0  0  0  0  0  0  0  0  0  0  0
    2.6228    7.1916   -1.9879 H   0  0  0  0  0  0  0  0  0  0  0  0
   -1.0787    5.1644   -2.0759 H   0  0  0  0  0  0  0  0  0  0  0  0
    0.1875    6.7600   -3.1564 H   0  0  0  0  0  0  0  0  0  0  0  0
   -1.8244    3.6854   -3.8548 H   0  0  0  0  0  0  0  0  0  0  0  0
   -1.2568    5.4550   -5.3653 H   0  0  0  0  0  0  0  0  0  0  0  0
   -1.7735   -0.9120    1.9023 H   0  0  0  0  0  0  0  0  0  0  0  0
   -3.1990   -1.0540    3.6631 H   0  0  0  0  0  0  0  0  0  0  0  0
   -2.6569   -3.5455    3.1382 H   0  0  0  0  0  0  0  0  0  0  0  0
   -0.2467   -2.1676    3.5224 H   0  0  0  0  0  0  0  0  0  0  0  0
   -0.5604   -4.5873    2.3827 H   0  0  0  0  0  0  0  0  0  0  0  0
   -0.0467   -2.2863    0.7826 H   0  0  0  0  0  0  0  0  0  0  0  0
  1  2  1  0  0  0  0
  1 39  1  0  0  0  0
  1 40  1  0  0  0  0
  1 41  1  0  0  0  0
  2  3  1  0  0  0  0
  2 37  1  0  0  0  0
  2 42  1  1  0  0  0
  3  4  1  0  0  0  0
  4  5  1  0  0  0  0
  4 33  1  0  0  0  0
  4 43  1  0  0  0  0
  5  6  1  0  0  0  0
  6  7  2  0  0  0  0
  6  8  1  0  0  0  0
  6  9  1  0  0  0  0
  8 44  1  0  0  0  0
  9 10  1  0  0  0  0
 10 11  2  0  0  0  0
 10 12  1  0  0  0  0
 10 13  1  0  0  0  0
 12 45  1  0  0  0  0
 13 14  1  0  0  0  0
 14 15  1  0  0  0  0
 14 46  1  0  0  0  0
 14 47  1  0  0  0  0
 15 16  1  0  0  0  0
 15 31  1  0  0  0  0
 15 48  1  6  0  0  0
 16 17  1  0  0  0  0
 17 18  1  0  0  0  0
 17 29  1  0  0  0  0
 17 49  1  6  0  0  0
 18 19  1  0  0  0  0
 18 28  1  0  0  0  0
 19 20  2  0  0  0  0
 19 50  1  0  0  0  0
 20 21  1  0  0  0  0
 21 22  1  0  0  0  0
 21 28  2  0  0  0  0
 22 23  2  0  0  0  0
 22 24  1  0  0  0  0
 24 25  1  0  0  0  0
 24 51  1  0  0  0  0
 25 26  1  0  0  0  0
 25 27  2  0  0  0  0
 26 52  1  0  0  0  0
 26 53  1  0  0  0  0
 27 28  1  0  0  0  0
 29 30  1  0  0  0  0
 29 31  1  0  0  0  0
 29 54  1  1  0  0  0
 30 55  1  0  0  0  0
 31 32  1  0  0  0  0
 31 56  1  1  0  0  0
 32 57  1  0  0  0  0
 33 34  1  0  0  0  0
 33 35  1  0  0  0  0
 33 58  1  6  0  0  0
 34 59  1  0  0  0  0
 35 36  1  0  0  0  0
 35 37  1  0  0  0  0
 35 60  1  1  0  0  0
 36 61  1  0  0  0  0
 37 38  1  0  0  0  0
 37 62  1  1  0  0  0
 38 63  1  0  0  0  0
M  END
$$$$
