CHEBI:9605
 OpenBabel04242411403D

 66 67  0  0  1  0  0  0  0  0999 V2000
   12.2242    5.4629    1.7834 C   0  0  0  0  0  0  0  0  0  0  0  0
   11.9758    4.1300    2.4726 C   0  0  0  0  0  0  0  0  0  0  0  0
   10.5333    3.9573    2.9453 C   0  0  0  0  0  0  0  0  0  0  0  0
   10.1323    4.9557    4.0259 C   0  0  0  0  0  0  0  0  0  0  0  0
    8.4499    4.7031    4.5907 S   0  0  0  0  0  0  0  0  0  0  0  0
    8.3027    3.3376    5.0379 O   0  0  0  0  0  0  0  0  0  0  0  0
    8.0378    5.8091    5.4213 O   0  0  0  0  0  0  0  0  0  0  0  0
    7.5214    4.8144    3.2185 N   0  0  0  0  0  0  0  0  0  0  0  0
    7.4745    6.0212    2.3561 C   0  0  1  0  0  0  0  0  0  0  0  0
    6.6353    5.6993    1.0888 C   0  0  0  0  0  0  0  0  0  0  0  0
    5.1436    5.4615    1.2487 C   0  0  0  0  0  0  0  0  0  0  0  0
    4.2809    5.8322    0.2058 C   0  0  0  0  0  0  0  0  0  0  0  0
    2.9041    5.5916    0.2908 C   0  0  0  0  0  0  0  0  0  0  0  0
    2.3615    4.9555    1.4057 C   0  0  0  0  0  0  0  0  0  0  0  0
    1.0047    4.8036    1.4077 O   0  0  0  0  0  0  0  0  0  0  0  0
    0.4857    3.6352    2.0456 C   0  0  0  0  0  0  0  0  0  0  0  0
   -0.9188    3.9299    2.5745 C   0  0  0  0  0  0  0  0  0  0  0  0
   -0.9179    5.0847    3.5826 C   0  0  0  0  0  0  0  0  0  0  0  0
   -2.2885    5.3510    4.2174 C   0  0  0  0  0  0  0  0  0  0  0  0
   -2.8582    4.2122    5.0934 C   0  0  0  0  0  0  0  0  0  0  0  0
   -4.2545    4.5826    5.6294 C   0  0  0  0  0  0  0  0  0  0  0  0
   -4.1982    5.5967    6.7738 C   0  0  0  0  0  0  0  0  0  0  0  0
   -3.3313    5.1458    7.8641 N   0  0  0  0  0  0  0  0  0  0  0  0
   -1.9721    4.8872    7.3847 C   0  0  0  0  0  0  0  0  0  0  0  0
   -1.9585    3.8298    6.2805 C   0  0  0  0  0  0  0  0  0  0  0  0
    3.2034    4.6022    2.4533 C   0  0  0  0  0  0  0  0  0  0  0  0
    4.5793    4.8372    2.3675 C   0  0  0  0  0  0  0  0  0  0  0  0
    7.0008    7.3608    2.8933 C   0  0  0  0  0  0  0  0  0  0  0  0
    7.0847    8.3910    2.2323 O   0  0  0  0  0  0  0  0  0  0  0  0
    6.4593    7.3657    4.1240 O   0  0  0  0  0  0  0  0  0  0  0  0
   13.2369    5.4891    1.3695 H   0  0  0  0  0  0  0  0  0  0  0  0
   12.1313    6.2988    2.4828 H   0  0  0  0  0  0  0  0  0  0  0  0
   11.5170    5.6188    0.9625 H   0  0  0  0  0  0  0  0  0  0  0  0
   12.6630    4.0202    3.3192 H   0  0  0  0  0  0  0  0  0  0  0  0
   12.2080    3.3233    1.7671 H   0  0  0  0  0  0  0  0  0  0  0  0
   10.4142    2.9375    3.3317 H   0  0  0  0  0  0  0  0  0  0  0  0
    9.8616    4.0363    2.0830 H   0  0  0  0  0  0  0  0  0  0  0  0
   10.1998    5.9920    3.6848 H   0  0  0  0  0  0  0  0  0  0  0  0
   10.7696    4.8445    4.9096 H   0  0  0  0  0  0  0  0  0  0  0  0
    7.4504    3.9182    2.7292 H   0  0  0  0  0  0  0  0  0  0  0  0
    8.5047    6.1887    2.0152 H   0  0  0  0  0  0  0  0  0  0  0  0
    7.0525    4.8069    0.6025 H   0  0  0  0  0  0  0  0  0  0  0  0
    6.7752    6.5249    0.3767 H   0  0  0  0  0  0  0  0  0  0  0  0
    4.6682    6.3245   -0.6844 H   0  0  0  0  0  0  0  0  0  0  0  0
    2.2518    5.9039   -0.5210 H   0  0  0  0  0  0  0  0  0  0  0  0
    1.0920    3.2699    2.8783 H   0  0  0  0  0  0  0  0  0  0  0  0
    0.4349    2.8347    1.2987 H   0  0  0  0  0  0  0  0  0  0  0  0
   -1.3098    3.0154    3.0312 H   0  0  0  0  0  0  0  0  0  0  0  0
   -1.5762    4.1927    1.7374 H   0  0  0  0  0  0  0  0  0  0  0  0
   -0.6079    6.0030    3.0675 H   0  0  0  0  0  0  0  0  0  0  0  0
   -0.1661    4.9090    4.3593 H   0  0  0  0  0  0  0  0  0  0  0  0
   -3.0037    5.5688    3.4134 H   0  0  0  0  0  0  0  0  0  0  0  0
   -2.2078    6.2721    4.8060 H   0  0  0  0  0  0  0  0  0  0  0  0
   -2.9800    3.3270    4.4579 H   0  0  0  0  0  0  0  0  0  0  0  0
   -4.7454    3.6691    5.9911 H   0  0  0  0  0  0  0  0  0  0  0  0
   -4.8840    4.9723    4.8208 H   0  0  0  0  0  0  0  0  0  0  0  0
   -5.2086    5.7464    7.1709 H   0  0  0  0  0  0  0  0  0  0  0  0
   -3.8634    6.5756    6.4125 H   0  0  0  0  0  0  0  0  0  0  0  0
   -3.7130    4.2832    8.2530 H   0  0  0  0  0  0  0  0  0  0  0  0
   -1.3663    4.5362    8.2276 H   0  0  0  0  0  0  0  0  0  0  0  0
   -1.5106    5.8198    7.0404 H   0  0  0  0  0  0  0  0  0  0  0  0
   -2.3189    2.8802    6.6994 H   0  0  0  0  0  0  0  0  0  0  0  0
   -0.9301    3.6398    5.9588 H   0  0  0  0  0  0  0  0  0  0  0  0
    2.8259    4.1698    3.3733 H   0  0  0  0  0  0  0  0  0  0  0  0
    5.1746    4.5247    3.2180 H   0  0  0  0  0  0  0  0  0  0  0  0
    6.6422    6.5497    4.6434 H   0  0  0  0  0  0  0  0  0  0  0  0
  1  2  1  0  0  0  0
  1 31  1  0  0  0  0
  1 32  1  0  0  0  0
  1 33  1  0  0  0  0
  2  3  1  0  0  0  0
  2 34  1  0  0  0  0
  2 35  1  0  0  0  0
  3  4  1  0  0  0  0
  3 36  1  0  0  0  0
  3 37  1  0  0  0  0
  4  5  1  0  0  0  0
  4 38  1  0  0  0  0
  4 39  1  0  0  0  0
  5  6  2  0  0  0  0
  5  7  2  0  0  0  0
  5  8  1  0  0  0  0
  8  9  1  0  0  0  0
  8 40  1  0  0  0  0
  9 10  1  0  0  0  0
  9 28  1  0  0  0  0
  9 41  1  6  0  0  0
 10 11  1  0  0  0  0
 10 42  1  0  0  0  0
 10 43  1  0  0  0  0
 11 12  1  0  0  0  0
 11 27  2  0  0  0  0
 12 13  2  0  0  0  0
 12 44  1  0  0  0  0
 13 14  1  0  0  0  0
 13 45  1  0  0  0  0
 14 15  1  0  0  0  0
 14 26  2  0  0  0  0
 15 16  1  0  0  0  0
 16 17  1  0  0  0  0
 16 46  1  0  0  0  0
 16 47  1  0  0  0  0
 17 18  1  0  0  0  0
 17 48  1  0  0  0  0
 17 49  1  0  0  0  0
 18 19  1  0  0  0  0
 18 50  1  0  0  0  0
 18 51  1  0  0  0  0
 19 20  1  0  0  0  0
 19 52  1  0  0  0  0
 19 53  1  0  0  0  0
 20 21  1  0  0  0  0
 20 25  1  0  0  0  0
 20 54  1  0  0  0  0
 21 22  1  0  0  0  0
 21 55  1  0  0  0  0
 21 56  1  0  0  0  0
 22 23  1  0  0  0  0
 22 57  1  0  0  0  0
 22 58  1  0  0  0  0
 23 24  1  0  0  0  0
 23 59  1  0  0  0  0
 24 25  1  0  0  0  0
 24 60  1  0  0  0  0
 24 61  1  0  0  0  0
 25 62  1  0  0  0  0
 25 63  1  0  0  0  0
 26 27  1  0  0  0  0
 26 64  1  0  0  0  0
 27 65  1  0  0  0  0
 28 29  2  0  0  0  0
 28 30  1  0  0  0  0
 30 66  1  0  0  0  0
M  END
$$$$
