CHEBI:15685
 OpenBabel04242413043D

 32 31  0  0  1  0  0  0  0  0999 V2000
    2.3408    0.8044    1.4130 O   0  0  0  0  0  0  0  0  0  0  0  0
    1.8314    1.5538    0.5339 C   0  0  0  0  0  0  0  0  0  0  0  0
    0.6277    1.9382    0.4326 O   0  5  0  0  0  0  0  0  0  0  0  0
    2.7583    2.0670   -0.5660 C   0  0  0  0  0  0  0  0  0  0  0  0
    4.2265    1.6855   -0.4068 C   0  0  0  0  0  0  0  0  0  0  0  0
    5.1026    2.2588   -1.5126 C   0  0  0  0  0  0  0  0  0  0  0  0
    4.6661    2.6315   -2.5988 O   0  0  0  0  0  0  0  0  0  0  0  0
    6.4354    2.2841   -1.1839 N   0  0  0  0  0  0  0  0  0  0  0  0
    7.5321    2.7623   -2.0641 C   0  0  1  0  0  0  0  0  0  0  0  0
    7.6004    4.3014   -2.0237 C   0  0  0  0  0  0  0  0  0  0  0  0
    8.1189    4.9427   -3.3226 C   0  0  0  0  0  0  0  0  0  0  0  0
    8.1470    6.4728   -3.2085 C   0  0  0  0  0  0  0  0  0  0  0  0
    8.5216    7.1776   -4.5003 C   0  0  0  0  0  0  0  0  0  0  0  0
    8.7783    6.6082   -5.5622 O   0  0  0  0  0  0  0  0  0  0  0  0
    8.5789    8.7202   -4.4930 C   0  0  0  0  0  0  0  0  0  0  0  0
    8.3511    9.2825   -3.3707 O   0  0  0  0  0  0  0  0  0  0  0  0
    8.8440    9.3247   -5.5844 O   0  5  0  0  0  0  0  0  0  0  0  0
    8.9126    2.1562   -1.6110 C   0  0  0  0  0  0  0  0  0  0  0  0
    8.8822    1.5546   -0.4883 O   0  0  0  0  0  0  0  0  0  0  0  0
    9.8858    2.2937   -2.4046 O   0  5  0  0  0  0  0  0  0  0  0  0
    2.6714    3.1606   -0.5996 H   0  0  0  0  0  0  0  0  0  0  0  0
    2.3801    1.6897   -1.5243 H   0  0  0  0  0  0  0  0  0  0  0  0
    4.3382    0.5947   -0.4276 H   0  0  0  0  0  0  0  0  0  0  0  0
    4.5995    2.0418    0.5610 H   0  0  0  0  0  0  0  0  0  0  0  0
    6.7819    1.8112   -0.3511 H   0  0  0  0  0  0  0  0  0  0  0  0
    7.3031    2.4109   -3.0768 H   0  0  0  0  0  0  0  0  0  0  0  0
    8.2274    4.6251   -1.1829 H   0  0  0  0  0  0  0  0  0  0  0  0
    6.5993    4.7088   -1.8307 H   0  0  0  0  0  0  0  0  0  0  0  0
    7.4720    4.6471   -4.1577 H   0  0  0  0  0  0  0  0  0  0  0  0
    9.1252    4.5781   -3.5560 H   0  0  0  0  0  0  0  0  0  0  0  0
    8.8707    6.7659   -2.4396 H   0  0  0  0  0  0  0  0  0  0  0  0
    7.1570    6.8366   -2.9105 H   0  0  0  0  0  0  0  0  0  0  0  0
  1  2  2  0  0  0  0
  2  3  1  0  0  0  0
  2  4  1  0  0  0  0
  4  5  1  0  0  0  0
  4 21  1  0  0  0  0
  4 22  1  0  0  0  0
  5  6  1  0  0  0  0
  5 23  1  0  0  0  0
  5 24  1  0  0  0  0
  6  7  2  0  0  0  0
  6  8  1  0  0  0  0
  8  9  1  0  0  0  0
  8 25  1  0  0  0  0
  9 10  1  0  0  0  0
  9 18  1  0  0  0  0
  9 26  1  6  0  0  0
 10 11  1  0  0  0  0
 10 27  1  0  0  0  0
 10 28  1  0  0  0  0
 11 12  1  0  0  0  0
 11 29  1  0  0  0  0
 11 30  1  0  0  0  0
 12 13  1  0  0  0  0
 12 31  1  0  0  0  0
 12 32  1  0  0  0  0
 13 14  2  0  0  0  0
 13 15  1  0  0  0  0
 15 16  2  0  0  0  0
 15 17  1  0  0  0  0
 18 19  2  0  0  0  0
 18 20  1  0  0  0  0
M  CHG  3   3  -1  17  -1  20  -1
M  END
$$$$
