CHEBI:16680
 OpenBabel04242415033D

 46 48  0  0  1  0  0  0  0  0999 V2000
    3.8720   12.3959    7.7187 N   0  0  0  0  0  0  0  0  0  0  0  0
    5.2019   12.5218    8.0964 C   0  0  0  0  0  0  0  0  0  0  0  0
    5.4986   13.3189    9.1486 N   0  0  0  0  0  0  0  0  0  0  0  0
    6.7934   13.4526    9.5088 C   0  0  0  0  0  0  0  0  0  0  0  0
    7.8825   12.8693    8.9625 N   0  0  0  0  0  0  0  0  0  0  0  0
    7.5278   12.0741    7.9390 C   0  0  0  0  0  0  0  0  0  0  0  0
    6.2513   11.8457    7.4530 C   0  0  0  0  0  0  0  0  0  0  0  0
    6.2816   10.9531    6.4024 N   0  0  0  0  0  0  0  0  0  0  0  0
    7.5572   10.6662    6.2389 C   0  0  0  0  0  0  0  0  0  0  0  0
    8.3465   11.3013    7.1606 N   0  0  0  0  0  0  0  0  0  0  0  0
    9.7903   11.2398    7.2870 C   0  0  2  0  0  0  0  0  0  0  0  0
   10.3113   10.3377    6.2844 O   0  0  0  0  0  0  0  0  0  0  0  0
   11.0137    9.2676    6.9466 C   0  0  2  0  0  0  0  0  0  0  0  0
   10.7789    7.9235    6.2499 C   0  0  0  0  0  0  0  0  0  0  0  0
   11.2066    7.9027    4.4693 S   0  0  0  0  0  0  0  0  0  0  0  0
   12.9947    8.2429    4.5705 C   0  0  0  0  0  0  0  0  0  0  0  0
   13.6284    8.0841    3.1863 C   0  0  0  0  0  0  0  0  0  0  0  0
   15.1219    8.4334    3.1397 C   0  0  2  0  0  0  0  0  0  0  0  0
   15.9152    7.5955    4.0680 N   0  0  0  0  0  0  0  0  0  0  0  0
   15.3496    9.9174    3.4427 C   0  0  0  0  0  0  0  0  0  0  0  0
   15.7466   10.3822    4.5004 O   0  0  0  0  0  0  0  0  0  0  0  0
   15.0578   10.7212    2.4030 O   0  0  0  0  0  0  0  0  0  0  0  0
   10.4875    9.2524    8.3792 C   0  0  1  0  0  0  0  0  0  0  0  0
   11.4034    8.6642    9.2914 O   0  0  0  0  0  0  0  0  0  0  0  0
   10.2775   10.7310    8.6512 C   0  0  1  0  0  0  0  0  0  0  0  0
   11.5516   11.3052    9.0091 O   0  0  0  0  0  0  0  0  0  0  0  0
    3.2341   12.6206    8.4702 H   0  0  0  0  0  0  0  0  0  0  0  0
    3.6840   11.5640    7.1700 H   0  0  0  0  0  0  0  0  0  0  0  0
    6.9798   14.1132   10.3514 H   0  0  0  0  0  0  0  0  0  0  0  0
    7.9577   10.0120    5.4726 H   0  0  0  0  0  0  0  0  0  0  0  0
   10.1720   12.2419    7.0611 H   0  0  0  0  0  0  0  0  0  0  0  0
   12.0832    9.5091    6.9440 H   0  0  0  0  0  0  0  0  0  0  0  0
    9.7135    7.6709    6.2936 H   0  0  0  0  0  0  0  0  0  0  0  0
   11.3272    7.1217    6.7554 H   0  0  0  0  0  0  0  0  0  0  0  0
   13.4426    7.5447    5.2837 H   0  0  0  0  0  0  0  0  0  0  0  0
   13.1339    9.2638    4.9352 H   0  0  0  0  0  0  0  0  0  0  0  0
   13.1000    8.7250    2.4676 H   0  0  0  0  0  0  0  0  0  0  0  0
   13.4988    7.0494    2.8413 H   0  0  0  0  0  0  0  0  0  0  0  0
   15.5035    8.2413    2.1300 H   0  0  0  0  0  0  0  0  0  0  0  0
   15.7869    7.9563    5.0173 H   0  0  0  0  0  0  0  0  0  0  0  0
   16.9061    7.7566    3.8778 H   0  0  0  0  0  0  0  0  0  0  0  0
   15.2501   11.6259    2.7281 H   0  0  0  0  0  0  0  0  0  0  0  0
    9.5305    8.7212    8.4414 H   0  0  0  0  0  0  0  0  0  0  0  0
   12.0362    9.3760    9.5260 H   0  0  0  0  0  0  0  0  0  0  0  0
    9.6028   10.9002    9.4944 H   0  0  0  0  0  0  0  0  0  0  0  0
   11.3855   12.2362    9.2519 H   0  0  0  0  0  0  0  0  0  0  0  0
  1  2  1  0  0  0  0
  1 27  1  0  0  0  0
  1 28  1  0  0  0  0
  2  3  1  0  0  0  0
  2  7  2  0  0  0  0
  3  4  2  0  0  0  0
  4  5  1  0  0  0  0
  4 29  1  0  0  0  0
  5  6  2  0  0  0  0
  6  7  1  0  0  0  0
  6 10  1  0  0  0  0
  7  8  1  0  0  0  0
  8  9  2  0  0  0  0
  9 10  1  0  0  0  0
  9 30  1  0  0  0  0
 10 11  1  0  0  0  0
 11 12  1  0  0  0  0
 11 25  1  0  0  0  0
 11 31  1  6  0  0  0
 12 13  1  0  0  0  0
 13 14  1  0  0  0  0
 13 23  1  0  0  0  0
 13 32  1  1  0  0  0
 14 15  1  0  0  0  0
 14 33  1  0  0  0  0
 14 34  1  0  0  0  0
 15 16  1  0  0  0  0
 16 17  1  0  0  0  0
 16 35  1  0  0  0  0
 16 36  1  0  0  0  0
 17 37  1  0  0  0  0
 17 38  1  0  0  0  0
 18 20  1  0  0  0  0
 18 19  1  0  0  0  0
 18 17  1  0  0  0  0
 18 39  1  6  0  0  0
 19 40  1  0  0  0  0
 19 41  1  0  0  0  0
 20 21  2  0  0  0  0
 20 22  1  0  0  0  0
 22 42  1  0  0  0  0
 23 24  1  0  0  0  0
 23 25  1  0  0  0  0
 23 43  1  1  0  0  0
 24 44  1  0  0  0  0
 25 26  1  0  0  0  0
 25 45  1  1  0  0  0
 26 46  1  0  0  0  0
M  END
$$$$
