CHEBI:4946
 OpenBabel04242411023D

 25 27  0  0  0  0  0  0  0  0999 V2000
    0.8410    0.1459    0.0738 O   0  0  0  0  0  0  0  0  0  0  0  0
    2.0628    0.0747    0.0747 C   0  0  0  0  0  0  0  0  0  0  0  0
    2.8516    1.3169    0.0749 C   0  0  0  0  0  0  0  0  0  0  0  0
    2.2133    2.5631    0.0741 C   0  0  0  0  0  0  0  0  0  0  0  0
    2.9869    3.7180    0.0745 C   0  0  0  0  0  0  0  0  0  0  0  0
    2.4149    4.9551    0.0736 O   0  0  0  0  0  0  0  0  0  0  0  0
    4.3761    3.6463    0.0758 C   0  0  0  0  0  0  0  0  0  0  0  0
    5.0055    2.4001    0.0765 C   0  0  0  0  0  0  0  0  0  0  0  0
    4.2403    1.2317    0.0760 C   0  0  0  0  0  0  0  0  0  0  0  0
    4.9307    0.0487    0.0765 O   0  0  0  0  0  0  0  0  0  0  0  0
    4.2142   -1.1241    0.0762 C   0  0  0  0  0  0  0  0  0  0  0  0
    4.9849   -2.2914    0.0767 C   0  0  0  0  0  0  0  0  0  0  0  0
    4.3663   -3.5398    0.0767 C   0  0  0  0  0  0  0  0  0  0  0  0
    2.9749   -3.6248    0.0763 C   0  0  0  0  0  0  0  0  0  0  0  0
    2.2026   -2.4591    0.0758 C   0  0  0  0  0  0  0  0  0  0  0  0
    0.8424   -2.5773    0.0756 O   0  0  0  0  0  0  0  0  0  0  0  0
    2.8180   -1.1995    0.0756 C   0  0  0  0  0  0  0  0  0  0  0  0
    1.1280    2.6115    0.0732 H   0  0  0  0  0  0  0  0  0  0  0  0
    1.4479    4.8520    0.0721 H   0  0  0  0  0  0  0  0  0  0  0  0
    4.9668    4.5586    0.0762 H   0  0  0  0  0  0  0  0  0  0  0  0
    6.0909    2.3433    0.0775 H   0  0  0  0  0  0  0  0  0  0  0  0
    6.0705   -2.2258    0.0770 H   0  0  0  0  0  0  0  0  0  0  0  0
    4.9685   -4.4453    0.0770 H   0  0  0  0  0  0  0  0  0  0  0  0
    2.5081   -4.6059    0.0764 H   0  0  0  0  0  0  0  0  0  0  0  0
    0.5826   -3.5114    0.0765 H   0  0  0  0  0  0  0  0  0  0  0  0
  1  2  2  0  0  0  0
  2  3  1  0  0  0  0
  2 17  1  0  0  0  0
  3  4  1  0  0  0  0
  3  9  2  0  0  0  0
  4  5  2  0  0  0  0
  4 18  1  0  0  0  0
  5  6  1  0  0  0  0
  5  7  1  0  0  0  0
  6 19  1  0  0  0  0
  7  8  2  0  0  0  0
  7 20  1  0  0  0  0
  8  9  1  0  0  0  0
  8 21  1  0  0  0  0
  9 10  1  0  0  0  0
 10 11  1  0  0  0  0
 11 12  1  0  0  0  0
 11 17  2  0  0  0  0
 12 13  2  0  0  0  0
 12 22  1  0  0  0  0
 13 14  1  0  0  0  0
 13 23  1  0  0  0  0
 14 15  2  0  0  0  0
 14 24  1  0  0  0  0
 15 16  1  0  0  0  0
 15 17  1  0  0  0  0
 16 25  1  0  0  0  0
M  END
$$$$
