CHEBI:18098
 OpenBabel04242423323D

 73 75  0  0  1  0  0  0  0  0999 V2000
    8.1994  -20.8862    6.1214 N   0  0  0  0  0  0  0  0  0  0  0  0
    7.6578  -19.7260    6.6016 C   0  0  0  0  0  0  0  0  0  0  0  0
    8.1593  -18.4369    6.1055 C   0  0  0  0  0  0  0  0  0  0  0  0
    7.5732  -17.3545    6.6079 C   0  0  0  0  0  0  0  0  0  0  0  0
    6.5983  -17.4457    7.5739 N   0  0  0  0  0  0  0  0  0  0  0  0
    5.9633  -16.2476    8.1118 C   0  0  2  0  0  0  0  0  0  0  0  0
    5.2020  -15.6001    7.0784 O   0  0  0  0  0  0  0  0  0  0  0  0
    4.9371  -14.2633    7.5669 C   0  0  2  0  0  0  0  0  0  0  0  0
    4.8901  -13.2929    6.3938 C   0  0  0  0  0  0  0  0  0  0  0  0
    6.1457  -13.1748    5.7286 O   0  0  0  0  0  0  0  0  0  0  0  0
    6.0960  -12.3987    4.3265 P   0  0  0  0  0  0  0  0  0  0  0  0
    5.0529  -12.8502    3.3603 O   0  0  0  0  0  0  0  0  0  0  0  0
    5.8263  -10.8825    4.7648 O   0  0  0  0  0  0  0  0  0  0  0  0
    7.5739  -12.3173    3.7280 O   0  0  0  0  0  0  0  0  0  0  0  0
    8.3963  -13.4808    3.6283 C   0  0  1  0  0  0  0  0  0  0  0  0
    9.0999  -13.5316    5.0144 C   0  0  0  0  0  0  0  0  0  0  0  0
    9.1077  -14.4648    5.7994 O   0  0  0  0  0  0  0  0  0  0  0  0
    9.7451  -12.3607    5.2872 O   0  0  0  0  0  0  0  0  0  0  0  0
    7.5891  -14.7271    3.2380 C   0  0  0  0  0  0  0  0  0  0  0  0
    8.4002  -15.8384    2.5800 C   0  0  2  0  0  0  0  0  0  0  0  0
    9.1214  -16.5594    3.5756 O   0  0  0  0  0  0  0  0  0  0  0  0
    9.3863  -15.2758    1.5404 C   0  0  1  0  0  0  0  0  0  0  0  0
    8.6970  -14.6628    0.3995 N   0  0  0  0  0  0  0  0  0  0  0  0
    7.9346  -15.3952   -0.4804 C   0  0  0  0  0  0  0  0  0  0  0  0
    7.8406  -16.6188   -0.4333 O   0  0  0  0  0  0  0  0  0  0  0  0
    7.2091  -14.5633   -1.5405 C   0  0  0  0  0  0  0  0  0  0  0  0
    6.0384  -15.2039   -2.0154 O   0  0  0  0  0  0  0  0  0  0  0  0
   10.2546  -14.2279    2.2610 C   0  0  2  0  0  0  0  0  0  0  0  0
   11.4039  -13.6613    1.3900 C   0  0  2  0  0  0  0  0  0  0  0  0
   12.1529  -12.7294    2.1965 O   0  0  0  0  0  0  0  0  0  0  0  0
   12.3667  -14.7418    0.8696 C   0  0  2  0  0  0  0  0  0  0  0  0
   12.9034  -15.4622    1.9923 O   0  0  0  0  0  0  0  0  0  0  0  0
   13.5364  -14.1595    0.0689 C   0  0  0  0  0  0  0  0  0  0  0  0
   14.3596  -15.2527   -0.3513 O   0  0  0  0  0  0  0  0  0  0  0  0
    9.3796  -13.1332    2.6335 O   0  0  0  0  0  0  0  0  0  0  0  0
    5.9960  -13.9379    8.6266 C   0  0  1  0  0  0  0  0  0  0  0  0
    5.3707  -13.8236    9.9142 O   0  0  0  0  0  0  0  0  0  0  0  0
    6.9174  -15.1513    8.6114 C   0  0  1  0  0  0  0  0  0  0  0  0
    7.4707  -15.3897    9.9064 O   0  0  0  0  0  0  0  0  0  0  0  0
    6.1328  -18.6933    8.0043 C   0  0  0  0  0  0  0  0  0  0  0  0
    5.2432  -18.7914    8.8472 O   0  0  0  0  0  0  0  0  0  0  0  0
    6.7167  -19.8279    7.4851 N   0  0  0  0  0  0  0  0  0  0  0  0
    9.1873  -20.8721    5.9020 H   0  0  0  0  0  0  0  0  0  0  0  0
    7.9234  -21.6915    6.6750 H   0  0  0  0  0  0  0  0  0  0  0  0
    8.9337  -18.3983    5.3564 H   0  0  0  0  0  0  0  0  0  0  0  0
    7.8535  -16.3704    6.2585 H   0  0  0  0  0  0  0  0  0  0  0  0
    5.2741  -16.5193    8.9207 H   0  0  0  0  0  0  0  0  0  0  0  0
    3.9390  -14.2894    8.0229 H   0  0  0  0  0  0  0  0  0  0  0  0
    4.5889  -12.3000    6.7439 H   0  0  0  0  0  0  0  0  0  0  0  0
    4.1460  -13.6503    5.6732 H   0  0  0  0  0  0  0  0  0  0  0  0
    5.0790  -10.5144    4.2563 H   0  0  0  0  0  0  0  0  0  0  0  0
    9.6338  -11.7389    4.5326 H   0  0  0  0  0  0  0  0  0  0  0  0
    6.8264  -14.4296    2.5087 H   0  0  0  0  0  0  0  0  0  0  0  0
    7.0545  -15.1235    4.1089 H   0  0  0  0  0  0  0  0  0  0  0  0
    7.7044  -16.5518    2.1255 H   0  0  0  0  0  0  0  0  0  0  0  0
    9.4579  -17.3720    3.1526 H   0  0  0  0  0  0  0  0  0  0  0  0
    9.9956  -16.1058    1.1676 H   0  0  0  0  0  0  0  0  0  0  0  0
    8.5350  -13.6600    0.4470 H   0  0  0  0  0  0  0  0  0  0  0  0
    7.8930  -14.4089   -2.3804 H   0  0  0  0  0  0  0  0  0  0  0  0
    6.9234  -13.5901   -1.1307 H   0  0  0  0  0  0  0  0  0  0  0  0
    6.2103  -16.1649   -1.9623 H   0  0  0  0  0  0  0  0  0  0  0  0
   10.6986  -14.6344    3.1782 H   0  0  0  0  0  0  0  0  0  0  0  0
   10.9959  -13.0813    0.5551 H   0  0  0  0  0  0  0  0  0  0  0  0
   12.6188  -13.2687    2.8674 H   0  0  0  0  0  0  0  0  0  0  0  0
   11.8453  -15.4731    0.2443 H   0  0  0  0  0  0  0  0  0  0  0  0
   13.6600  -15.9671    1.6243 H   0  0  0  0  0  0  0  0  0  0  0  0
   14.1597  -13.5018    0.6821 H   0  0  0  0  0  0  0  0  0  0  0  0
   13.1823  -13.6227   -0.8158 H   0  0  0  0  0  0  0  0  0  0  0  0
   15.0784  -14.8734   -0.8892 H   0  0  0  0  0  0  0  0  0  0  0  0
    6.5309  -13.0001    8.4494 H   0  0  0  0  0  0  0  0  0  0  0  0
    6.0482  -14.1348   10.5529 H   0  0  0  0  0  0  0  0  0  0  0  0
    7.7336  -14.9571    7.9122 H   0  0  0  0  0  0  0  0  0  0  0  0
    8.0111  -16.1985    9.8287 H   0  0  0  0  0  0  0  0  0  0  0  0
  1  2  1  0  0  0  0
  1 43  1  0  0  0  0
  1 44  1  0  0  0  0
  2  3  1  0  0  0  0
  2 42  2  0  0  0  0
  3  4  2  0  0  0  0
  3 45  1  0  0  0  0
  4  5  1  0  0  0  0
  4 46  1  0  0  0  0
  5  6  1  0  0  0  0
  5 40  1  0  0  0  0
  6  7  1  0  0  0  0
  6 38  1  0  0  0  0
  6 47  1  1  0  0  0
  7  8  1  0  0  0  0
  8  9  1  0  0  0  0
  8 36  1  0  0  0  0
  8 48  1  1  0  0  0
  9 10  1  0  0  0  0
  9 49  1  0  0  0  0
  9 50  1  0  0  0  0
 10 11  1  0  0  0  0
 11 12  2  0  0  0  0
 11 13  1  0  0  0  0
 11 14  1  0  0  0  0
 13 51  1  0  0  0  0
 15 19  1  0  0  0  0
 15 35  1  0  0  0  0
 15 16  1  1  0  0  0
 15 14  1  0  0  0  0
 16 17  2  0  0  0  0
 16 18  1  0  0  0  0
 18 52  1  0  0  0  0
 19 20  1  0  0  0  0
 19 53  1  0  0  0  0
 19 54  1  0  0  0  0
 20 21  1  0  0  0  0
 20 22  1  0  0  0  0
 20 55  1  6  0  0  0
 21 56  1  0  0  0  0
 22 23  1  0  0  0  0
 22 28  1  0  0  0  0
 22 57  1  6  0  0  0
 23 24  1  0  0  0  0
 23 58  1  0  0  0  0
 24 25  2  0  0  0  0
 24 26  1  0  0  0  0
 26 27  1  0  0  0  0
 26 59  1  0  0  0  0
 26 60  1  0  0  0  0
 27 61  1  0  0  0  0
 28 35  1  0  0  0  0
 28 62  1  6  0  0  0
 29 30  1  0  0  0  0
 29 28  1  0  0  0  0
 29 63  1  1  0  0  0
 30 64  1  0  0  0  0
 31 33  1  0  0  0  0
 31 32  1  0  0  0  0
 31 29  1  0  0  0  0
 31 65  1  6  0  0  0
 32 66  1  0  0  0  0
 33 34  1  0  0  0  0
 33 67  1  0  0  0  0
 33 68  1  0  0  0  0
 34 69  1  0  0  0  0
 36 37  1  0  0  0  0
 36 38  1  0  0  0  0
 36 70  1  6  0  0  0
 37 71  1  0  0  0  0
 38 39  1  0  0  0  0
 38 72  1  6  0  0  0
 39 73  1  0  0  0  0
 40 41  2  0  0  0  0
 40 42  1  0  0  0  0
M  END
$$$$
