CHEBI:15560
 OpenBabel04242412483D

 49 49  0  0  1  0  0  0  0  0999 V2000
   10.0090    3.4340   -0.0500 C   0  0  0  0  0  0  0  0  0  0  0  0
    8.6010    3.0857   -0.5125 C   0  0  0  0  0  0  0  0  0  0  0  0
    7.9637    2.0447    0.3647 C   0  0  0  0  0  0  0  0  0  0  0  0
    6.6598    1.9322    0.6710 C   0  0  0  0  0  0  0  0  0  0  0  0
    5.5290    2.8089    0.2002 C   0  0  0  0  0  0  0  0  0  0  0  0
    4.3342    2.1058   -0.4546 C   0  0  2  0  0  0  0  0  0  0  0  0
    3.7138    1.0305    0.4048 C   0  0  0  0  0  0  0  0  0  0  0  0
    3.5257    1.0904    1.6102 O   0  0  0  0  0  0  0  0  0  0  0  0
    3.2701   -0.1112   -0.4029 C   0  0  0  0  0  0  0  0  0  0  0  0
    3.6807    0.1330   -1.6493 C   0  0  0  0  0  0  0  0  0  0  0  0
    4.4815    1.4010   -1.8280 C   0  0  2  0  0  0  0  0  0  0  0  0
    5.9065    1.1016   -2.3186 C   0  0  0  0  0  0  0  0  0  0  0  0
    5.9462    0.5827   -3.7645 C   0  0  0  0  0  0  0  0  0  0  0  0
    7.3643    0.2665   -4.2552 C   0  0  0  0  0  0  0  0  0  0  0  0
    8.0448   -0.9345   -3.5865 C   0  0  0  0  0  0  0  0  0  0  0  0
    7.2990   -2.2535   -3.8063 C   0  0  0  0  0  0  0  0  0  0  0  0
    8.0714   -3.4428   -3.2313 C   0  0  0  0  0  0  0  0  0  0  0  0
    7.2984   -4.7468   -3.4255 C   0  0  0  0  0  0  0  0  0  0  0  0
    8.0174   -5.9220   -2.8198 C   0  0  0  0  0  0  0  0  0  0  0  0
    9.0821   -5.9195   -2.2293 O   0  0  0  0  0  0  0  0  0  0  0  0
    7.3318   -7.0700   -2.9941 O   0  0  0  0  0  0  0  0  0  0  0  0
   10.4482    4.1842   -0.7157 H   0  0  0  0  0  0  0  0  0  0  0  0
   10.6585    2.5520   -0.0650 H   0  0  0  0  0  0  0  0  0  0  0  0
   10.0055    3.8406    0.9665 H   0  0  0  0  0  0  0  0  0  0  0  0
    8.6562    2.7013   -1.5365 H   0  0  0  0  0  0  0  0  0  0  0  0
    8.0098    4.0066   -0.5310 H   0  0  0  0  0  0  0  0  0  0  0  0
    8.6396    1.3022    0.7894 H   0  0  0  0  0  0  0  0  0  0  0  0
    6.3764    1.1309    1.3553 H   0  0  0  0  0  0  0  0  0  0  0  0
    5.8834    3.5855   -0.4848 H   0  0  0  0  0  0  0  0  0  0  0  0
    5.1625    3.3404    1.0893 H   0  0  0  0  0  0  0  0  0  0  0  0
    3.5466    2.8665   -0.5707 H   0  0  0  0  0  0  0  0  0  0  0  0
    2.7085   -0.9435   -0.0181 H   0  0  0  0  0  0  0  0  0  0  0  0
    3.4711   -0.5398   -2.4720 H   0  0  0  0  0  0  0  0  0  0  0  0
    3.9847    2.0262   -2.5819 H   0  0  0  0  0  0  0  0  0  0  0  0
    6.3837    0.3730   -1.6549 H   0  0  0  0  0  0  0  0  0  0  0  0
    6.4946    2.0242   -2.2899 H   0  0  0  0  0  0  0  0  0  0  0  0
    5.5248    1.3551   -4.4203 H   0  0  0  0  0  0  0  0  0  0  0  0
    5.3085   -0.2976   -3.8841 H   0  0  0  0  0  0  0  0  0  0  0  0
    7.9983    1.1510   -4.1170 H   0  0  0  0  0  0  0  0  0  0  0  0
    7.3214    0.0844   -5.3364 H   0  0  0  0  0  0  0  0  0  0  0  0
    8.1690   -0.7511   -2.5135 H   0  0  0  0  0  0  0  0  0  0  0  0
    9.0563   -1.0243   -4.0029 H   0  0  0  0  0  0  0  0  0  0  0  0
    7.1356   -2.4092   -4.8796 H   0  0  0  0  0  0  0  0  0  0  0  0
    6.3138   -2.2091   -3.3294 H   0  0  0  0  0  0  0  0  0  0  0  0
    8.2599   -3.2794   -2.1630 H   0  0  0  0  0  0  0  0  0  0  0  0
    9.0524   -3.5200   -3.7167 H   0  0  0  0  0  0  0  0  0  0  0  0
    7.1625   -4.9418   -4.4951 H   0  0  0  0  0  0  0  0  0  0  0  0
    6.3147   -4.6695   -2.9492 H   0  0  0  0  0  0  0  0  0  0  0  0
    7.8902   -7.7482   -2.5591 H   0  0  0  0  0  0  0  0  0  0  0  0
  1  2  1  0  0  0  0
  1 22  1  0  0  0  0
  1 23  1  0  0  0  0
  1 24  1  0  0  0  0
  2  3  1  0  0  0  0
  2 25  1  0  0  0  0
  2 26  1  0  0  0  0
  3  4  2  0  0  0  0
  3 27  1  0  0  0  0
  4  5  1  0  0  0  0
  4 28  1  0  0  0  0
  5 29  1  0  0  0  0
  5 30  1  0  0  0  0
  6  7  1  0  0  0  0
  6 11  1  0  0  0  0
  6  5  1  0  0  0  0
  6 31  1  6  0  0  0
  7  8  2  0  0  0  0
  7  9  1  0  0  0  0
  9 10  2  0  0  0  0
  9 32  1  0  0  0  0
 10 11  1  0  0  0  0
 10 33  1  0  0  0  0
 11 12  1  0  0  0  0
 11 34  1  6  0  0  0
 12 13  1  0  0  0  0
 12 35  1  0  0  0  0
 12 36  1  0  0  0  0
 13 14  1  0  0  0  0
 13 37  1  0  0  0  0
 13 38  1  0  0  0  0
 14 15  1  0  0  0  0
 14 39  1  0  0  0  0
 14 40  1  0  0  0  0
 15 16  1  0  0  0  0
 15 41  1  0  0  0  0
 15 42  1  0  0  0  0
 16 17  1  0  0  0  0
 16 43  1  0  0  0  0
 16 44  1  0  0  0  0
 17 18  1  0  0  0  0
 17 45  1  0  0  0  0
 17 46  1  0  0  0  0
 18 19  1  0  0  0  0
 18 47  1  0  0  0  0
 18 48  1  0  0  0  0
 19 20  2  0  0  0  0
 19 21  1  0  0  0  0
 21 49  1  0  0  0  0
M  END
$$$$
