CHEBI:16946
 OpenBabel04242415343D

 27 27  0  0  1  0  0  0  0  0999 V2000
    2.2888    1.5980   -0.8046 N   0  0  0  0  0  0  0  0  0  0  0  0
    1.9177    0.9394    0.3801 C   0  0  0  0  0  0  0  0  0  0  0  0
    1.4027   -0.3642    0.2678 C   0  0  0  0  0  0  0  0  0  0  0  0
    1.0358   -1.1024    1.3947 C   0  0  0  0  0  0  0  0  0  0  0  0
    1.1476   -0.5379    2.6581 C   0  0  0  0  0  0  0  0  0  0  0  0
    1.6086    0.7711    2.7886 C   0  0  0  0  0  0  0  0  0  0  0  0
    1.9787    1.5268    1.6586 C   0  0  0  0  0  0  0  0  0  0  0  0
    2.4304    2.9234    1.9395 C   0  0  0  0  0  0  0  0  0  0  0  0
    2.9651    3.1683    3.0265 O   0  0  0  0  0  0  0  0  0  0  0  0
    2.2138    4.0283    0.9223 C   0  0  0  0  0  0  0  0  0  0  0  0
    2.4876    5.4038    1.5452 C   0  0  2  0  0  0  0  0  0  0  0  0
    1.8685    6.4526    0.6895 N   0  0  0  0  0  0  0  0  0  0  0  0
    4.0090    5.6694    1.6304 C   0  0  0  0  0  0  0  0  0  0  0  0
    4.6049    6.4314    0.8788 O   0  0  0  0  0  0  0  0  0  0  0  0
    4.6471    4.9944    2.6109 O   0  0  0  0  0  0  0  0  0  0  0  0
    2.2344    1.0122   -1.6347 H   0  0  0  0  0  0  0  0  0  0  0  0
    3.2083    2.0293   -0.7494 H   0  0  0  0  0  0  0  0  0  0  0  0
    1.3074   -0.8348   -0.7086 H   0  0  0  0  0  0  0  0  0  0  0  0
    0.6685   -2.1197    1.2822 H   0  0  0  0  0  0  0  0  0  0  0  0
    0.8693   -1.1092    3.5403 H   0  0  0  0  0  0  0  0  0  0  0  0
    1.6711    1.2056    3.7853 H   0  0  0  0  0  0  0  0  0  0  0  0
    1.1721    3.9691    0.5847 H   0  0  0  0  0  0  0  0  0  0  0  0
    2.8870    3.8875    0.0738 H   0  0  0  0  0  0  0  0  0  0  0  0
    2.0563    5.5060    2.5470 H   0  0  0  0  0  0  0  0  0  0  0  0
    2.3826    6.4708   -0.1978 H   0  0  0  0  0  0  0  0  0  0  0  0
    2.0951    7.3628    1.1006 H   0  0  0  0  0  0  0  0  0  0  0  0
    4.0643    4.3578    3.0974 H   0  0  0  0  0  0  0  0  0  0  0  0
  1  2  1  0  0  0  0
  1 16  1  0  0  0  0
  1 17  1  0  0  0  0
  2  3  1  0  0  0  0
  2  7  2  0  0  0  0
  3  4  2  0  0  0  0
  3 18  1  0  0  0  0
  4  5  1  0  0  0  0
  4 19  1  0  0  0  0
  5  6  2  0  0  0  0
  5 20  1  0  0  0  0
  6  7  1  0  0  0  0
  6 21  1  0  0  0  0
  7  8  1  0  0  0  0
  8  9  2  0  0  0  0
  8 10  1  0  0  0  0
 10 22  1  0  0  0  0
 10 23  1  0  0  0  0
 11 13  1  0  0  0  0
 11 12  1  0  0  0  0
 11 10  1  0  0  0  0
 11 24  1  1  0  0  0
 12 25  1  0  0  0  0
 12 26  1  0  0  0  0
 13 14  2  0  0  0  0
 13 15  1  0  0  0  0
 15 27  1  0  0  0  0
M  END
$$$$
