CHEBI:16286
 OpenBabel04242414083D

 79 82  0  0  1  0  0  0  0  0999 V2000
   10.2498    3.4347    5.4094 C   0  0  0  0  0  0  0  0  0  0  0  0
   10.7626    3.2283    3.9848 C   0  0  0  0  0  0  0  0  0  0  0  0
   12.1892    3.7724    3.8636 C   0  0  0  0  0  0  0  0  0  0  0  0
   10.7329    1.7528    3.5485 C   0  0  0  0  0  0  0  0  0  0  0  0
    9.3341    1.1191    3.5650 C   0  0  0  0  0  0  0  0  0  0  0  0
    9.3600   -0.2376    2.8504 C   0  0  0  0  0  0  0  0  0  0  0  0
    8.0328   -1.0417    2.8631 C   0  0  1  0  0  0  0  0  0  0  0  0
    7.7064   -1.4625    4.2992 C   0  0  0  0  0  0  0  0  0  0  0  0
    6.8474   -0.3177    2.1561 C   0  0  1  0  0  0  0  0  0  0  0  0
    7.2313    0.1610    0.7283 C   0  0  0  0  0  0  0  0  0  0  0  0
    6.0144   -0.0619   -0.1693 C   0  0  0  0  0  0  0  0  0  0  0  0
    4.8367   -0.2649    0.7929 C   0  0  1  0  0  0  0  0  0  0  0  0
    4.1520    1.0220    1.2976 C   0  0  0  0  0  0  0  0  0  0  0  0
    4.3169    2.2209    0.7277 C   0  0  0  0  0  0  0  0  0  0  0  0
    3.6075    3.4597    1.1209 C   0  0  0  0  0  0  0  0  0  0  0  0
    2.2986    3.2946    1.9374 C   0  0  1  0  0  0  0  0  0  0  0  0
    1.9400    4.6928    2.5909 C   0  0  2  0  0  0  0  0  0  0  0  0
    0.4864    4.7576    3.1118 C   0  0  0  0  0  0  0  0  0  0  0  0
    1.9642    5.7669    1.4895 C   0  0  0  0  0  0  0  0  0  0  0  0
    2.9419    6.4375    1.1763 O   0  0  0  0  0  0  0  0  0  0  0  0
    2.9764    5.0647    3.6974 C   0  0  1  0  0  0  0  0  0  0  0  0
    2.3609    5.8540    4.7238 O   0  0  0  0  0  0  0  0  0  0  0  0
    3.6663    3.8477    4.3383 C   0  0  0  0  0  0  0  0  0  0  0  0
    2.7409    2.6405    4.3883 C   0  0  0  0  0  0  0  0  0  0  0  0
    2.3440    2.0975    2.9746 C   0  0  1  0  0  0  0  0  0  0  0  0
    0.9032    1.5079    3.1359 C   0  0  0  0  0  0  0  0  0  0  0  0
    3.2002    0.8367    2.4613 C   0  0  1  0  0  0  0  0  0  0  0  0
    3.9479    0.1041    3.5915 C   0  0  0  0  0  0  0  0  0  0  0  0
    4.5573   -1.2146    3.1354 C   0  0  0  0  0  0  0  0  0  0  0  0
    5.5078   -1.1056    1.9289 C   0  0  2  0  0  0  0  0  0  0  0  0
    5.7827   -2.5547    1.4493 C   0  0  0  0  0  0  0  0  0  0  0  0
   10.3366    4.4868    5.7024 H   0  0  0  0  0  0  0  0  0  0  0  0
   10.8197    2.8363    6.1280 H   0  0  0  0  0  0  0  0  0  0  0  0
    9.1941    3.1604    5.4956 H   0  0  0  0  0  0  0  0  0  0  0  0
   10.1243    3.8053    3.3039 H   0  0  0  0  0  0  0  0  0  0  0  0
   12.8731    3.2495    4.5412 H   0  0  0  0  0  0  0  0  0  0  0  0
   12.2216    4.8396    4.1072 H   0  0  0  0  0  0  0  0  0  0  0  0
   12.5677    3.6528    2.8427 H   0  0  0  0  0  0  0  0  0  0  0  0
   11.4007    1.1626    4.1897 H   0  0  0  0  0  0  0  0  0  0  0  0
   11.1401    1.6869    2.5312 H   0  0  0  0  0  0  0  0  0  0  0  0
    8.6216    1.7889    3.0725 H   0  0  0  0  0  0  0  0  0  0  0  0
    9.0064    0.9891    4.6017 H   0  0  0  0  0  0  0  0  0  0  0  0
   10.1423   -0.8597    3.3065 H   0  0  0  0  0  0  0  0  0  0  0  0
    9.6856   -0.0842    1.8149 H   0  0  0  0  0  0  0  0  0  0  0  0
    8.2525   -1.9611    2.3050 H   0  0  0  0  0  0  0  0  0  0  0  0
    7.2402   -0.6487    4.8632 H   0  0  0  0  0  0  0  0  0  0  0  0
    8.6103   -1.7716    4.8360 H   0  0  0  0  0  0  0  0  0  0  0  0
    7.0362   -2.3252    4.3128 H   0  0  0  0  0  0  0  0  0  0  0  0
    6.6188    0.5816    2.7427 H   0  0  0  0  0  0  0  0  0  0  0  0
    8.0823   -0.3880    0.3122 H   0  0  0  0  0  0  0  0  0  0  0  0
    7.5027    1.2227    0.7533 H   0  0  0  0  0  0  0  0  0  0  0  0
    6.1655   -0.9733   -0.7617 H   0  0  0  0  0  0  0  0  0  0  0  0
    5.8910    0.7299   -0.9110 H   0  0  0  0  0  0  0  0  0  0  0  0
    4.0589   -0.8562    0.2912 H   0  0  0  0  0  0  0  0  0  0  0  0
    5.0004    2.3629   -0.1030 H   0  0  0  0  0  0  0  0  0  0  0  0
    3.3529    3.9772    0.1858 H   0  0  0  0  0  0  0  0  0  0  0  0
    4.3372    4.0997    1.6256 H   0  0  0  0  0  0  0  0  0  0  0  0
    1.5193    3.0594    1.1965 H   0  0  0  0  0  0  0  0  0  0  0  0
   -0.2121    4.3198    2.3894 H   0  0  0  0  0  0  0  0  0  0  0  0
    0.1649    5.7961    3.2649 H   0  0  0  0  0  0  0  0  0  0  0  0
    0.3515    4.2518    4.0695 H   0  0  0  0  0  0  0  0  0  0  0  0
    1.0393    5.8502    0.8894 H   0  0  0  0  0  0  0  0  0  0  0  0
    3.7729    5.7017    3.2987 H   0  0  0  0  0  0  0  0  0  0  0  0
    2.0328    5.2622    5.4216 H   0  0  0  0  0  0  0  0  0  0  0  0
    3.9902    4.0943    5.3568 H   0  0  0  0  0  0  0  0  0  0  0  0
    4.5714    3.5784    3.7832 H   0  0  0  0  0  0  0  0  0  0  0  0
    1.8430    2.9346    4.9460 H   0  0  0  0  0  0  0  0  0  0  0  0
    3.1880    1.8806    5.0303 H   0  0  0  0  0  0  0  0  0  0  0  0
    0.1844    2.2162    3.5474 H   0  0  0  0  0  0  0  0  0  0  0  0
    0.9096    0.6441    3.8115 H   0  0  0  0  0  0  0  0  0  0  0  0
    0.5035    1.1739    2.1709 H   0  0  0  0  0  0  0  0  0  0  0  0
    2.4709    0.1123    2.0650 H   0  0  0  0  0  0  0  0  0  0  0  0
    3.2498   -0.1344    4.4031 H   0  0  0  0  0  0  0  0  0  0  0  0
    4.7389    0.7387    4.0078 H   0  0  0  0  0  0  0  0  0  0  0  0
    3.7268   -1.8854    2.8724 H   0  0  0  0  0  0  0  0  0  0  0  0
    5.0477   -1.6856    3.9899 H   0  0  0  0  0  0  0  0  0  0  0  0
    6.1236   -3.1872    2.2760 H   0  0  0  0  0  0  0  0  0  0  0  0
    6.5478   -2.6091    0.6693 H   0  0  0  0  0  0  0  0  0  0  0  0
    4.8711   -3.0118    1.0476 H   0  0  0  0  0  0  0  0  0  0  0  0
  1  2  1  0  0  0  0
  1 32  1  0  0  0  0
  1 33  1  0  0  0  0
  1 34  1  0  0  0  0
  2  3  1  0  0  0  0
  2  4  1  0  0  0  0
  2 35  1  0  0  0  0
  3 36  1  0  0  0  0
  3 37  1  0  0  0  0
  3 38  1  0  0  0  0
  4  5  1  0  0  0  0
  4 39  1  0  0  0  0
  4 40  1  0  0  0  0
  5  6  1  0  0  0  0
  5 41  1  0  0  0  0
  5 42  1  0  0  0  0
  6 43  1  0  0  0  0
  6 44  1  0  0  0  0
  7  8  1  0  0  0  0
  7  6  1  0  0  0  0
  7 45  1  6  0  0  0
  8 46  1  0  0  0  0
  8 47  1  0  0  0  0
  8 48  1  0  0  0  0
  9 10  1  0  0  0  0
  9 30  1  0  0  0  0
  9  7  1  0  0  0  0
  9 49  1  1  0  0  0
 10 11  1  0  0  0  0
 10 50  1  0  0  0  0
 10 51  1  0  0  0  0
 11 12  1  0  0  0  0
 11 52  1  0  0  0  0
 11 53  1  0  0  0  0
 12 13  1  0  0  0  0
 12 30  1  0  0  0  0
 12 54  1  1  0  0  0
 13 14  2  0  0  0  0
 13 27  1  0  0  0  0
 14 15  1  0  0  0  0
 14 55  1  0  0  0  0
 15 16  1  0  0  0  0
 15 56  1  0  0  0  0
 15 57  1  0  0  0  0
 16 17  1  0  0  0  0
 16 25  1  0  0  0  0
 16 58  1  1  0  0  0
 17 21  1  0  0  0  0
 17 18  1  0  0  0  0
 17 19  1  6  0  0  0
 18 59  1  0  0  0  0
 18 60  1  0  0  0  0
 18 61  1  0  0  0  0
 19 20  2  0  0  0  0
 19 62  1  0  0  0  0
 21 23  1  0  0  0  0
 21 22  1  0  0  0  0
 21 63  1  6  0  0  0
 22 64  1  0  0  0  0
 23 24  1  0  0  0  0
 23 65  1  0  0  0  0
 23 66  1  0  0  0  0
 24 25  1  0  0  0  0
 24 67  1  0  0  0  0
 24 68  1  0  0  0  0
 25 27  1  0  0  0  0
 25 26  1  1  0  0  0
 26 69  1  0  0  0  0
 26 70  1  0  0  0  0
 26 71  1  0  0  0  0
 27 28  1  0  0  0  0
 27 72  1  1  0  0  0
 28 29  1  0  0  0  0
 28 73  1  0  0  0  0
 28 74  1  0  0  0  0
 29 30  1  0  0  0  0
 29 75  1  0  0  0  0
 29 76  1  0  0  0  0
 30 31  1  6  0  0  0
 31 77  1  0  0  0  0
 31 78  1  0  0  0  0
 31 79  1  0  0  0  0
M  END
$$$$
