CHEBI:8435
 OpenBabel04242411143D

 49 52  0  0  0  0  0  0  0  0999 V2000
   -2.9469   -1.4290    2.9341 C   0  0  0  0  0  0  0  0  0  0  0  0
   -3.3608   -2.7020    2.3517 N   0  0  0  0  0  0  0  0  0  0  0  0
   -4.7587   -2.6440    1.8886 C   0  0  0  0  0  0  0  0  0  0  0  0
   -5.2453   -4.0034    1.3334 C   0  0  0  0  0  0  0  0  0  0  0  0
   -5.0858   -5.1514    2.2551 N   0  0  0  0  0  0  0  0  0  0  0  0
   -6.0366   -5.1416    3.3768 C   0  0  0  0  0  0  0  0  0  0  0  0
   -7.4978   -5.3622    2.9639 C   0  0  0  0  0  0  0  0  0  0  0  0
   -7.6853   -6.6252    2.1087 C   0  0  0  0  0  0  0  0  0  0  0  0
   -9.1247   -6.8914    1.8350 N   0  0  0  0  0  0  0  0  0  0  0  0
   -9.7752   -7.7483    2.7622 C   0  0  0  0  0  0  0  0  0  0  0  0
   -9.1790   -8.9629    3.1590 C   0  0  0  0  0  0  0  0  0  0  0  0
   -9.8073   -9.8398    4.0486 C   0  0  0  0  0  0  0  0  0  0  0  0
  -11.0618   -9.5306    4.5543 C   0  0  0  0  0  0  0  0  0  0  0  0
  -11.6892   -8.3533    4.1558 C   0  0  0  0  0  0  0  0  0  0  0  0
  -11.0639   -7.4714    3.2567 C   0  0  0  0  0  0  0  0  0  0  0  0
  -11.9667   -5.9996    2.8205 S   0  0  0  0  0  0  0  0  0  0  0  0
  -11.0833   -5.4489    1.3755 C   0  0  0  0  0  0  0  0  0  0  0  0
  -11.7179   -4.4779    0.5817 C   0  0  0  0  0  0  0  0  0  0  0  0
  -11.0880   -3.9571   -0.5460 C   0  0  0  0  0  0  0  0  0  0  0  0
   -9.8217   -4.4125   -0.8861 C   0  0  0  0  0  0  0  0  0  0  0  0
   -9.0348   -3.7827   -2.2809 Cl  0  0  0  0  0  0  0  0  0  0  0  0
   -9.1823   -5.3770   -0.1061 C   0  0  0  0  0  0  0  0  0  0  0  0
   -9.7883   -5.9050    1.0524 C   0  0  0  0  0  0  0  0  0  0  0  0
   -3.6856   -5.1579    2.7411 C   0  0  0  0  0  0  0  0  0  0  0  0
   -3.1852   -3.8078    3.3093 C   0  0  0  0  0  0  0  0  0  0  0  0
   -3.0350   -0.6234    2.1969 H   0  0  0  0  0  0  0  0  0  0  0  0
   -1.8939   -1.4681    3.2334 H   0  0  0  0  0  0  0  0  0  0  0  0
   -3.5451   -1.1599    3.8119 H   0  0  0  0  0  0  0  0  0  0  0  0
   -4.8424   -1.9004    1.0867 H   0  0  0  0  0  0  0  0  0  0  0  0
   -5.4237   -2.3210    2.6996 H   0  0  0  0  0  0  0  0  0  0  0  0
   -4.6731   -4.2290    0.4229 H   0  0  0  0  0  0  0  0  0  0  0  0
   -6.2830   -3.9112    0.9962 H   0  0  0  0  0  0  0  0  0  0  0  0
   -5.9713   -4.2150    3.9586 H   0  0  0  0  0  0  0  0  0  0  0  0
   -5.7753   -5.9557    4.0656 H   0  0  0  0  0  0  0  0  0  0  0  0
   -7.8732   -4.4767    2.4393 H   0  0  0  0  0  0  0  0  0  0  0  0
   -8.1022   -5.4477    3.8762 H   0  0  0  0  0  0  0  0  0  0  0  0
   -7.2030   -7.4597    2.6275 H   0  0  0  0  0  0  0  0  0  0  0  0
   -7.1312   -6.5449    1.1677 H   0  0  0  0  0  0  0  0  0  0  0  0
   -8.2236   -9.2720    2.7419 H   0  0  0  0  0  0  0  0  0  0  0  0
   -9.3192  -10.7697    4.3294 H   0  0  0  0  0  0  0  0  0  0  0  0
  -11.5587  -10.2086    5.2425 H   0  0  0  0  0  0  0  0  0  0  0  0
  -12.6797   -8.1277    4.5462 H   0  0  0  0  0  0  0  0  0  0  0  0
  -12.7112   -4.1191    0.8426 H   0  0  0  0  0  0  0  0  0  0  0  0
  -11.5905   -3.2070   -1.1505 H   0  0  0  0  0  0  0  0  0  0  0  0
   -8.2096   -5.7340   -0.4298 H   0  0  0  0  0  0  0  0  0  0  0  0
   -3.0397   -5.4439    1.9001 H   0  0  0  0  0  0  0  0  0  0  0  0
   -3.5492   -5.9456    3.4924 H   0  0  0  0  0  0  0  0  0  0  0  0
   -2.1201   -3.9137    3.5483 H   0  0  0  0  0  0  0  0  0  0  0  0
   -3.7073   -3.5917    4.2503 H   0  0  0  0  0  0  0  0  0  0  0  0
  1  2  1  0  0  0  0
  1 26  1  0  0  0  0
  1 27  1  0  0  0  0
  1 28  1  0  0  0  0
  2  3  1  0  0  0  0
  2 25  1  0  0  0  0
  3  4  1  0  0  0  0
  3 29  1  0  0  0  0
  3 30  1  0  0  0  0
  4  5  1  0  0  0  0
  4 31  1  0  0  0  0
  4 32  1  0  0  0  0
  5  6  1  0  0  0  0
  5 24  1  0  0  0  0
  6  7  1  0  0  0  0
  6 33  1  0  0  0  0
  6 34  1  0  0  0  0
  7  8  1  0  0  0  0
  7 35  1  0  0  0  0
  7 36  1  0  0  0  0
  8  9  1  0  0  0  0
  8 37  1  0  0  0  0
  8 38  1  0  0  0  0
  9 10  1  0  0  0  0
  9 23  1  0  0  0  0
 10 11  1  0  0  0  0
 10 15  2  0  0  0  0
 11 12  2  0  0  0  0
 11 39  1  0  0  0  0
 12 13  1  0  0  0  0
 12 40  1  0  0  0  0
 13 14  2  0  0  0  0
 13 41  1  0  0  0  0
 14 15  1  0  0  0  0
 14 42  1  0  0  0  0
 15 16  1  0  0  0  0
 16 17  1  0  0  0  0
 17 18  1  0  0  0  0
 17 23  2  0  0  0  0
 18 19  2  0  0  0  0
 18 43  1  0  0  0  0
 19 20  1  0  0  0  0
 19 44  1  0  0  0  0
 20 21  1  0  0  0  0
 20 22  2  0  0  0  0
 22 23  1  0  0  0  0
 22 45  1  0  0  0  0
 24 25  1  0  0  0  0
 24 46  1  0  0  0  0
 24 47  1  0  0  0  0
 25 48  1  0  0  0  0
 25 49  1  0  0  0  0
M  END
$$$$
