CHEBI:15414
 OpenBabel04242411503D

 50 52  0  0  1  0  0  0  0  0999 V2000
    9.1345    6.1329   -1.1921 C   0  0  0  0  0  0  0  0  0  0  0  0
    7.6565    5.7475   -2.1482 S   0  3  0  0  0  0  0  0  0  0  0  0
    7.6297    7.2070   -3.2365 C   0  0  0  0  0  0  0  0  0  0  0  0
    8.8775    7.5133   -4.0639 C   0  0  0  0  0  0  0  0  0  0  0  0
    8.6929    8.7367   -4.9745 C   0  0  2  0  0  0  0  0  0  0  0  0
    9.8641    8.8448   -5.9068 N   0  0  0  0  0  0  0  0  0  0  0  0
    8.6332   10.0401   -4.1552 C   0  0  0  0  0  0  0  0  0  0  0  0
    7.6996   10.3970   -3.4577 O   0  0  0  0  0  0  0  0  0  0  0  0
    9.7854   10.7513   -4.2843 O   0  0  0  0  0  0  0  0  0  0  0  0
    8.3835    4.4747   -3.2200 C   0  0  0  0  0  0  0  0  0  0  0  0
    7.3666    3.8839   -4.2077 C   0  0  1  0  0  0  0  0  0  0  0  0
    7.0192    4.8807   -5.2056 O   0  0  0  0  0  0  0  0  0  0  0  0
    7.4077    4.3827   -6.5010 C   0  0  1  0  0  0  0  0  0  0  0  0
    7.7300    5.5216   -7.3334 N   0  0  0  0  0  0  0  0  0  0  0  0
    6.8700    6.5691   -7.5651 C   0  0  0  0  0  0  0  0  0  0  0  0
    7.3901    7.4684   -8.3728 N   0  0  0  0  0  0  0  0  0  0  0  0
    8.6257    6.9628   -8.7105 C   0  0  0  0  0  0  0  0  0  0  0  0
    9.6504    7.4522   -9.5374 C   0  0  0  0  0  0  0  0  0  0  0  0
    9.5460    8.6259  -10.2573 N   0  0  0  0  0  0  0  0  0  0  0  0
   10.8039    6.7525   -9.6134 N   0  0  0  0  0  0  0  0  0  0  0  0
   10.8976    5.5895   -8.9372 C   0  0  0  0  0  0  0  0  0  0  0  0
    9.9725    5.0050   -8.1463 N   0  0  0  0  0  0  0  0  0  0  0  0
    8.8615    5.7576   -8.0651 C   0  0  0  0  0  0  0  0  0  0  0  0
    8.5155    3.3666   -6.2218 C   0  0  2  0  0  0  0  0  0  0  0  0
    8.7179    2.4172   -7.2652 O   0  0  0  0  0  0  0  0  0  0  0  0
    7.9624    2.6973   -4.9757 C   0  0  2  0  0  0  0  0  0  0  0  0
    6.9297    1.7795   -5.3576 O   0  0  0  0  0  0  0  0  0  0  0  0
    8.9694    7.0587   -0.6353 H   0  0  0  0  0  0  0  0  0  0  0  0
   10.0182    6.2319   -1.8237 H   0  0  0  0  0  0  0  0  0  0  0  0
    9.3059    5.3211   -0.4801 H   0  0  0  0  0  0  0  0  0  0  0  0
    7.4007    8.0471   -2.5739 H   0  0  0  0  0  0  0  0  0  0  0  0
    6.7644    7.0875   -3.8966 H   0  0  0  0  0  0  0  0  0  0  0  0
    9.1156    6.6568   -4.7008 H   0  0  0  0  0  0  0  0  0  0  0  0
    9.7400    7.6784   -3.4097 H   0  0  0  0  0  0  0  0  0  0  0  0
    7.7825    8.6593   -5.5766 H   0  0  0  0  0  0  0  0  0  0  0  0
    9.5396    9.3630   -6.7342 H   0  0  0  0  0  0  0  0  0  0  0  0
   10.0657    7.9133   -6.2809 H   0  0  0  0  0  0  0  0  0  0  0  0
   10.3484   10.2272   -4.9094 H   0  0  0  0  0  0  0  0  0  0  0  0
    8.7174    3.6779   -2.5450 H   0  0  0  0  0  0  0  0  0  0  0  0
    9.2718    4.8605   -3.7225 H   0  0  0  0  0  0  0  0  0  0  0  0
    6.4426    3.5996   -3.6915 H   0  0  0  0  0  0  0  0  0  0  0  0
    6.5385    3.9026   -6.9696 H   0  0  0  0  0  0  0  0  0  0  0  0
    5.8883    6.6218   -7.1073 H   0  0  0  0  0  0  0  0  0  0  0  0
    8.7786    9.2419  -10.0219 H   0  0  0  0  0  0  0  0  0  0  0  0
   10.4177    9.0098  -10.5925 H   0  0  0  0  0  0  0  0  0  0  0  0
   11.8417    5.0606   -9.0395 H   0  0  0  0  0  0  0  0  0  0  0  0
    9.4692    3.8434   -5.9686 H   0  0  0  0  0  0  0  0  0  0  0  0
    9.1788    2.9010   -7.9820 H   0  0  0  0  0  0  0  0  0  0  0  0
    8.7111    2.1282   -4.4172 H   0  0  0  0  0  0  0  0  0  0  0  0
    7.3048    1.2559   -6.0959 H   0  0  0  0  0  0  0  0  0  0  0  0
  1  2  1  0  0  0  0
  1 28  1  0  0  0  0
  1 29  1  0  0  0  0
  1 30  1  0  0  0  0
  2  3  1  0  0  0  0
  2 10  1  0  0  0  0
  3  4  1  0  0  0  0
  3 31  1  0  0  0  0
  3 32  1  0  0  0  0
  4 33  1  0  0  0  0
  4 34  1  0  0  0  0
  5  7  1  0  0  0  0
  5  6  1  0  0  0  0
  5  4  1  0  0  0  0
  5 35  1  6  0  0  0
  6 36  1  0  0  0  0
  6 37  1  0  0  0  0
  7  8  2  0  0  0  0
  7  9  1  0  0  0  0
  9 38  1  0  0  0  0
 10 11  1  0  0  0  0
 10 39  1  0  0  0  0
 10 40  1  0  0  0  0
 11 12  1  0  0  0  0
 11 26  1  0  0  0  0
 11 41  1  1  0  0  0
 12 13  1  0  0  0  0
 13 14  1  0  0  0  0
 13 24  1  0  0  0  0
 13 42  1  6  0  0  0
 14 15  1  0  0  0  0
 14 23  1  0  0  0  0
 15 16  2  0  0  0  0
 15 43  1  0  0  0  0
 16 17  1  0  0  0  0
 17 18  1  0  0  0  0
 17 23  2  0  0  0  0
 18 19  1  0  0  0  0
 18 20  2  0  0  0  0
 19 44  1  0  0  0  0
 19 45  1  0  0  0  0
 20 21  1  0  0  0  0
 21 22  2  0  0  0  0
 21 46  1  0  0  0  0
 22 23  1  0  0  0  0
 24 25  1  0  0  0  0
 24 26  1  0  0  0  0
 24 47  1  1  0  0  0
 25 48  1  0  0  0  0
 26 27  1  0  0  0  0
 26 49  1  1  0  0  0
 27 50  1  0  0  0  0
M  CHG  1   2   1
M  END
$$$$
