CHEBI:16702
 OpenBabel04242415063D

 29 29  0  0  1  0  0  0  0  0999 V2000
    7.4662    2.3356   -1.3991 O   0  0  0  0  0  0  0  0  0  0  0  0
    7.7634    1.8033   -2.7042 S   0  0  0  0  0  0  0  0  0  0  0  0
    7.5051    2.5343   -3.9177 O   0  0  0  0  0  0  0  0  0  0  0  0
    9.3105    1.3910   -2.6863 O   0  0  0  0  0  0  0  0  0  0  0  0
    7.0029    0.3150   -2.8500 N   0  0  0  0  0  0  0  0  0  0  0  0
    5.5020    0.3476   -2.6597 C   0  0  1  0  0  0  0  0  0  0  0  0
    4.7864    1.1292   -3.7869 C   0  0  0  0  0  0  0  0  0  0  0  0
    5.2865    0.6891   -5.0442 O   0  0  0  0  0  0  0  0  0  0  0  0
    3.3718    0.9849   -3.7413 O   0  0  0  0  0  0  0  0  0  0  0  0
    2.9292   -0.3766   -3.8134 C   0  0  2  0  0  0  0  0  0  0  0  0
    1.3938   -0.4014   -3.8286 C   0  0  0  0  0  0  0  0  0  0  0  0
    0.8775   -1.7044   -4.0792 O   0  0  0  0  0  0  0  0  0  0  0  0
    3.4878   -1.1759   -2.6277 C   0  0  1  0  0  0  0  0  0  0  0  0
    3.0635   -2.5439   -2.6713 O   0  0  0  0  0  0  0  0  0  0  0  0
    5.0159   -1.1116   -2.6515 C   0  0  2  0  0  0  0  0  0  0  0  0
    5.5228   -1.8052   -1.4979 O   0  0  0  0  0  0  0  0  0  0  0  0
    9.6933    1.7223   -1.8472 H   0  0  0  0  0  0  0  0  0  0  0  0
    7.2115   -0.0277   -3.7964 H   0  0  0  0  0  0  0  0  0  0  0  0
    5.2737    0.7855   -1.6799 H   0  0  0  0  0  0  0  0  0  0  0  0
    4.9981    2.1981   -3.6855 H   0  0  0  0  0  0  0  0  0  0  0  0
    5.2640    1.4756   -5.6203 H   0  0  0  0  0  0  0  0  0  0  0  0
    3.2694   -0.8299   -4.7542 H   0  0  0  0  0  0  0  0  0  0  0  0
    0.9876   -0.0388   -2.8780 H   0  0  0  0  0  0  0  0  0  0  0  0
    1.0144    0.2681   -4.6081 H   0  0  0  0  0  0  0  0  0  0  0  0
    1.4190   -2.3321   -3.5535 H   0  0  0  0  0  0  0  0  0  0  0  0
    3.1229   -0.7590   -1.6804 H   0  0  0  0  0  0  0  0  0  0  0  0
    3.6342   -3.0068   -2.0218 H   0  0  0  0  0  0  0  0  0  0  0  0
    5.3958   -1.6612   -3.5223 H   0  0  0  0  0  0  0  0  0  0  0  0
    6.4756   -1.5875   -1.4573 H   0  0  0  0  0  0  0  0  0  0  0  0
  1  2  2  0  0  0  0
  2  3  2  0  0  0  0
  2  4  1  0  0  0  0
  2  5  1  0  0  0  0
  4 17  1  0  0  0  0
  5 18  1  0  0  0  0
  6  7  1  0  0  0  0
  6 15  1  0  0  0  0
  6  5  1  0  0  0  0
  6 19  1  1  0  0  0
  7  8  1  0  0  0  0
  7  9  1  0  0  0  0
  7 20  1  0  0  0  0
  8 21  1  0  0  0  0
  9 10  1  0  0  0  0
 10 13  1  0  0  0  0
 10 11  1  0  0  0  0
 10 22  1  6  0  0  0
 11 12  1  0  0  0  0
 11 23  1  0  0  0  0
 11 24  1  0  0  0  0
 12 25  1  0  0  0  0
 13 14  1  0  0  0  0
 13 15  1  0  0  0  0
 13 26  1  1  0  0  0
 14 27  1  0  0  0  0
 15 16  1  0  0  0  0
 15 28  1  6  0  0  0
 16 29  1  0  0  0  0
M  END
$$$$
