CHEBI:15334
 OpenBabel04242411433D

 30 31  0  0  1  0  0  0  0  0999 V2000
    3.5376   -0.5628    0.6940 C   0  0  0  0  0  0  0  0  0  0  0  0
    2.5348    0.0489   -0.1698 N   0  0  0  0  0  0  0  0  0  0  0  0
    1.3253    0.4758    0.5912 C   0  0  1  0  0  0  0  0  0  0  0  0
    0.3891    1.2549   -0.3495 C   0  0  0  0  0  0  0  0  0  0  0  0
   -0.8550    1.7660    0.3160 C   0  0  0  0  0  0  0  0  0  0  0  0
   -2.0739    1.1157    0.3598 C   0  0  0  0  0  0  0  0  0  0  0  0
   -2.9592    1.9026    1.0429 N   0  0  0  0  0  0  0  0  0  0  0  0
   -2.3483    3.0666    1.4445 C   0  0  0  0  0  0  0  0  0  0  0  0
   -2.8680    4.1563    2.1533 C   0  0  0  0  0  0  0  0  0  0  0  0
   -2.0082    5.2249    2.4201 C   0  0  0  0  0  0  0  0  0  0  0  0
   -0.6819    5.2001    1.9962 C   0  0  0  0  0  0  0  0  0  0  0  0
   -0.1775    4.1008    1.2901 C   0  0  0  0  0  0  0  0  0  0  0  0
   -1.0248    3.0103    1.0046 C   0  0  0  0  0  0  0  0  0  0  0  0
    0.5888   -0.7515    1.1329 C   0  0  0  0  0  0  0  0  0  0  0  0
    0.1879   -1.7041    0.4797 O   0  0  0  0  0  0  0  0  0  0  0  0
    0.4561   -0.7407    2.4754 O   0  0  0  0  0  0  0  0  0  0  0  0
    4.4185   -0.8179    0.0964 H   0  0  0  0  0  0  0  0  0  0  0  0
    3.1759   -1.4872    1.1552 H   0  0  0  0  0  0  0  0  0  0  0  0
    3.8611    0.1279    1.4787 H   0  0  0  0  0  0  0  0  0  0  0  0
    2.2410   -0.6359   -0.8714 H   0  0  0  0  0  0  0  0  0  0  0  0
    1.6264    1.1228    1.4246 H   0  0  0  0  0  0  0  0  0  0  0  0
    0.0953    0.6226   -1.1989 H   0  0  0  0  0  0  0  0  0  0  0  0
    0.9322    2.1067   -0.7806 H   0  0  0  0  0  0  0  0  0  0  0  0
   -2.3832    0.1591   -0.0422 H   0  0  0  0  0  0  0  0  0  0  0  0
   -3.9268    1.6730    1.2210 H   0  0  0  0  0  0  0  0  0  0  0  0
   -3.9017    4.1788    2.4825 H   0  0  0  0  0  0  0  0  0  0  0  0
   -2.3825    6.0886    2.9650 H   0  0  0  0  0  0  0  0  0  0  0  0
   -0.0305    6.0433    2.2122 H   0  0  0  0  0  0  0  0  0  0  0  0
    0.8576    4.0962    0.9618 H   0  0  0  0  0  0  0  0  0  0  0  0
   -0.0201   -1.5724    2.6754 H   0  0  0  0  0  0  0  0  0  0  0  0
  1  2  1  0  0  0  0
  1 17  1  0  0  0  0
  1 18  1  0  0  0  0
  1 19  1  0  0  0  0
  2  3  1  0  0  0  0
  2 20  1  0  0  0  0
  3  4  1  0  0  0  0
  3 14  1  0  0  0  0
  3 21  1  1  0  0  0
  4  5  1  0  0  0  0
  4 22  1  0  0  0  0
  4 23  1  0  0  0  0
  5  6  2  0  0  0  0
  5 13  1  0  0  0  0
  6  7  1  0  0  0  0
  6 24  1  0  0  0  0
  7  8  1  0  0  0  0
  7 25  1  0  0  0  0
  8  9  1  0  0  0  0
  8 13  2  0  0  0  0
  9 10  2  0  0  0  0
  9 26  1  0  0  0  0
 10 11  1  0  0  0  0
 10 27  1  0  0  0  0
 11 12  2  0  0  0  0
 11 28  1  0  0  0  0
 12 13  1  0  0  0  0
 12 29  1  0  0  0  0
 14 15  2  0  0  0  0
 14 16  1  0  0  0  0
 16 30  1  0  0  0  0
M  END
$$$$
