CHEBI:17687
 OpenBabel04242417063D

 76 79  0  0  1  0  0  0  0  0999 V2000
   -0.3844    0.5666    0.6256 C   0  0  0  0  0  0  0  0  0  0  0  0
    0.8720   -0.3211    0.5907 C   0  0  2  0  0  0  0  0  0  0  0  0
    0.5128   -1.6258   -0.1506 C   0  0  0  0  0  0  0  0  0  0  0  0
    1.7164   -2.4076   -0.6754 C   0  0  0  0  0  0  0  0  0  0  0  0
    1.2764   -3.6777   -1.3834 C   0  0  0  0  0  0  0  0  0  0  0  0
    0.1727   -4.1919   -1.2352 O   0  0  0  0  0  0  0  0  0  0  0  0
    2.2529   -4.2209   -2.1908 N   0  0  0  0  0  0  0  0  0  0  0  0
    1.9428   -5.3644   -3.0363 C   0  0  0  0  0  0  0  0  0  0  0  0
    1.3468   -4.9789   -4.3841 C   0  0  0  0  0  0  0  0  0  0  0  0
    0.9237   -5.7587   -5.2248 O   0  0  0  0  0  0  0  0  0  0  0  0
    1.3863   -3.6559   -4.6560 O   0  0  0  0  0  0  0  0  0  0  0  0
    1.6147   -0.5281    1.9490 C   0  0  1  0  0  0  0  0  0  0  0  0
    2.0221    0.8162    2.6256 C   0  0  0  0  0  0  0  0  0  0  0  0
    1.8303    0.6405    4.1337 C   0  0  0  0  0  0  0  0  0  0  0  0
    1.8542   -0.8692    4.3126 C   0  0  1  0  0  0  0  0  0  0  0  0
    1.4019   -1.4392    5.6677 C   0  0  2  0  0  0  0  0  0  0  0  0
    2.1622   -0.8270    6.8592 C   0  0  2  0  0  0  0  0  0  0  0  0
    3.5694   -0.9512    6.6829 O   0  0  0  0  0  0  0  0  0  0  0  0
    1.7598   -1.4737    8.1876 C   0  0  0  0  0  0  0  0  0  0  0  0
    1.8082   -3.0154    8.1974 C   0  0  2  0  0  0  0  0  0  0  0  0
    3.2609   -3.5204    8.3212 C   0  0  0  0  0  0  0  0  0  0  0  0
    3.3471   -5.0421    8.3448 C   0  0  2  0  0  0  0  0  0  0  0  0
    4.7103   -5.4494    8.3961 O   0  0  0  0  0  0  0  0  0  0  0  0
    2.6831   -5.6403    7.1120 C   0  0  0  0  0  0  0  0  0  0  0  0
    1.2299   -5.1943    7.0192 C   0  0  0  0  0  0  0  0  0  0  0  0
    1.0341   -3.6484    6.9910 C   0  0  1  0  0  0  0  0  0  0  0  0
   -0.4886   -3.4155    7.1925 C   0  0  0  0  0  0  0  0  0  0  0  0
    1.5360   -2.9985    5.6411 C   0  0  1  0  0  0  0  0  0  0  0  0
    0.8938   -3.6257    4.3673 C   0  0  0  0  0  0  0  0  0  0  0  0
    1.2426   -2.9193    3.0378 C   0  0  2  0  0  0  0  0  0  0  0  0
    2.5913   -3.2282    2.6798 O   0  0  0  0  0  0  0  0  0  0  0  0
    1.0085   -1.3894    3.1141 C   0  0  2  0  0  0  0  0  0  0  0  0
   -0.5051   -1.1236    3.2893 C   0  0  0  0  0  0  0  0  0  0  0  0
   -0.2568    1.4759    1.2145 H   0  0  0  0  0  0  0  0  0  0  0  0
   -1.2620    0.0357    1.0010 H   0  0  0  0  0  0  0  0  0  0  0  0
   -0.6336    0.8888   -0.3931 H   0  0  0  0  0  0  0  0  0  0  0  0
    1.5839    0.2219   -0.0489 H   0  0  0  0  0  0  0  0  0  0  0  0
   -0.1125   -2.2619    0.4826 H   0  0  0  0  0  0  0  0  0  0  0  0
   -0.1162   -1.3788   -1.0177 H   0  0  0  0  0  0  0  0  0  0  0  0
    2.3880   -2.6998    0.1351 H   0  0  0  0  0  0  0  0  0  0  0  0
    2.2801   -1.7822   -1.3773 H   0  0  0  0  0  0  0  0  0  0  0  0
    2.9962   -3.6085   -2.4998 H   0  0  0  0  0  0  0  0  0  0  0  0
    1.2407   -6.0260   -2.5205 H   0  0  0  0  0  0  0  0  0  0  0  0
    2.8854   -5.8875   -3.2203 H   0  0  0  0  0  0  0  0  0  0  0  0
    0.9513   -3.5897   -5.5321 H   0  0  0  0  0  0  0  0  0  0  0  0
    2.5715   -0.9964    1.6770 H   0  0  0  0  0  0  0  0  0  0  0  0
    1.4728    1.6917    2.2764 H   0  0  0  0  0  0  0  0  0  0  0  0
    3.0798    1.0133    2.4088 H   0  0  0  0  0  0  0  0  0  0  0  0
    0.8754    1.0694    4.4561 H   0  0  0  0  0  0  0  0  0  0  0  0
    2.6236    1.1464    4.6921 H   0  0  0  0  0  0  0  0  0  0  0  0
    2.9021   -1.1716    4.1648 H   0  0  0  0  0  0  0  0  0  0  0  0
    0.3519   -1.1716    5.8161 H   0  0  0  0  0  0  0  0  0  0  0  0
    1.9416    0.2449    6.9311 H   0  0  0  0  0  0  0  0  0  0  0  0
    3.8576   -0.2415    6.0839 H   0  0  0  0  0  0  0  0  0  0  0  0
    0.7396   -1.1540    8.4336 H   0  0  0  0  0  0  0  0  0  0  0  0
    2.4028   -1.0902    8.9900 H   0  0  0  0  0  0  0  0  0  0  0  0
    1.3046   -3.3354    9.1220 H   0  0  0  0  0  0  0  0  0  0  0  0
    3.7185   -3.1221    9.2361 H   0  0  0  0  0  0  0  0  0  0  0  0
    3.8872   -3.1528    7.5031 H   0  0  0  0  0  0  0  0  0  0  0  0
    2.8621   -5.4251    9.2501 H   0  0  0  0  0  0  0  0  0  0  0  0
    5.1741   -5.0337    7.6491 H   0  0  0  0  0  0  0  0  0  0  0  0
    2.7343   -6.7347    7.1653 H   0  0  0  0  0  0  0  0  0  0  0  0
    3.2355   -5.3655    6.2056 H   0  0  0  0  0  0  0  0  0  0  0  0
    0.7035   -5.6041    7.8932 H   0  0  0  0  0  0  0  0  0  0  0  0
    0.7571   -5.6686    6.1527 H   0  0  0  0  0  0  0  0  0  0  0  0
   -0.8149   -3.8027    8.1654 H   0  0  0  0  0  0  0  0  0  0  0  0
   -1.0812   -3.9366    6.4339 H   0  0  0  0  0  0  0  0  0  0  0  0
   -0.7701   -2.3606    7.1652 H   0  0  0  0  0  0  0  0  0  0  0  0
    2.6096   -3.2144    5.5617 H   0  0  0  0  0  0  0  0  0  0  0  0
   -0.1947   -3.6508    4.4694 H   0  0  0  0  0  0  0  0  0  0  0  0
    1.2274   -4.6667    4.2841 H   0  0  0  0  0  0  0  0  0  0  0  0
    0.6214   -3.3565    2.2506 H   0  0  0  0  0  0  0  0  0  0  0  0
    3.1487   -3.1795    3.4735 H   0  0  0  0  0  0  0  0  0  0  0  0
   -1.0750   -1.5718    2.4700 H   0  0  0  0  0  0  0  0  0  0  0  0
   -0.7385   -0.0557    3.3235 H   0  0  0  0  0  0  0  0  0  0  0  0
   -0.9175   -1.5605    4.2020 H   0  0  0  0  0  0  0  0  0  0  0  0
  1 34  1  0  0  0  0
  1 35  1  0  0  0  0
  1 36  1  0  0  0  0
  2 12  1  0  0  0  0
  2  3  1  0  0  0  0
  2  1  1  0  0  0  0
  2 37  1  6  0  0  0
  3  4  1  0  0  0  0
  3 38  1  0  0  0  0
  3 39  1  0  0  0  0
  4  5  1  0  0  0  0
  4 40  1  0  0  0  0
  4 41  1  0  0  0  0
  5  6  2  0  0  0  0
  5  7  1  0  0  0  0
  7  8  1  0  0  0  0
  7 42  1  0  0  0  0
  8  9  1  0  0  0  0
  8 43  1  0  0  0  0
  8 44  1  0  0  0  0
  9 10  2  0  0  0  0
  9 11  1  0  0  0  0
 11 45  1  0  0  0  0
 12 13  1  0  0  0  0
 12 32  1  0  0  0  0
 12 46  1  6  0  0  0
 13 14  1  0  0  0  0
 13 47  1  0  0  0  0
 13 48  1  0  0  0  0
 14 15  1  0  0  0  0
 14 49  1  0  0  0  0
 14 50  1  0  0  0  0
 15 16  1  0  0  0  0
 15 32  1  0  0  0  0
 15 51  1  6  0  0  0
 16 17  1  0  0  0  0
 16 28  1  0  0  0  0
 16 52  1  1  0  0  0
 17 18  1  0  0  0  0
 17 19  1  0  0  0  0
 17 53  1  1  0  0  0
 18 54  1  0  0  0  0
 19 20  1  0  0  0  0
 19 55  1  0  0  0  0
 19 56  1  0  0  0  0
 20 21  1  0  0  0  0
 20 26  1  0  0  0  0
 20 57  1  1  0  0  0
 21 22  1  0  0  0  0
 21 58  1  0  0  0  0
 21 59  1  0  0  0  0
 22 23  1  0  0  0  0
 22 24  1  0  0  0  0
 22 60  1  1  0  0  0
 23 61  1  0  0  0  0
 24 25  1  0  0  0  0
 24 62  1  0  0  0  0
 24 63  1  0  0  0  0
 25 26  1  0  0  0  0
 25 64  1  0  0  0  0
 25 65  1  0  0  0  0
 26 27  1  1  0  0  0
 26 28  1  0  0  0  0
 27 66  1  0  0  0  0
 27 67  1  0  0  0  0
 27 68  1  0  0  0  0
 28 29  1  0  0  0  0
 28 69  1  6  0  0  0
 29 30  1  0  0  0  0
 29 70  1  0  0  0  0
 29 71  1  0  0  0  0
 30 31  1  0  0  0  0
 30 32  1  0  0  0  0
 30 72  1  6  0  0  0
 31 73  1  0  0  0  0
 32 33  1  1  0  0  0
 33 74  1  0  0  0  0
 33 75  1  0  0  0  0
 33 76  1  0  0  0  0
M  END
$$$$
