CHEBI:3745
 OpenBabel04242410543D

 60 61  0  0  1  0  0  0  0  0999 V2000
   16.0726   -5.9696    7.2959 C   0  0  0  0  0  0  0  0  0  0  0  0
   16.0337   -5.0476    8.5055 C   0  0  0  0  0  0  0  0  0  0  0  0
   16.6396   -3.6653    8.2420 C   0  0  0  0  0  0  0  0  0  0  0  0
   15.9254   -2.8571    7.1572 C   0  0  2  0  0  0  0  0  0  0  0  0
   16.5468   -1.4785    6.9268 C   0  0  0  0  0  0  0  0  0  0  0  0
   15.4017   -0.6253    6.3689 C   0  0  1  0  0  0  0  0  0  0  0  0
   15.6504   -0.2741    4.8906 C   0  0  0  0  0  0  0  0  0  0  0  0
   16.1742    0.7744    4.5256 O   0  0  0  0  0  0  0  0  0  0  0  0
   15.3207   -1.2844    4.0159 N   0  0  0  0  0  0  0  0  0  0  0  0
   15.3732   -1.1781    2.5484 C   0  0  0  0  0  0  0  0  0  0  0  0
   14.1120   -1.8791    1.9661 C   0  0  0  0  0  0  0  0  0  0  0  0
   13.8377   -1.6553    0.4849 C   0  0  0  0  0  0  0  0  0  0  0  0
   14.1111   -3.6404    2.3234 Cl  0  0  0  0  0  0  0  0  0  0  0  0
   16.7458   -1.6666    1.9848 C   0  0  1  0  0  0  0  0  0  0  0  0
   16.6994   -1.5914    0.5469 O   0  0  0  0  0  0  0  0  0  0  0  0
   17.8991   -1.9833   -0.1359 C   0  0  2  0  0  0  0  0  0  0  0  0
   18.2142   -3.7915   -0.0079 S   0  0  0  0  0  0  0  0  0  0  0  0
   16.7534   -4.3974   -0.8789 C   0  0  0  0  0  0  0  0  0  0  0  0
   19.0820   -1.1131    0.3223 C   0  0  2  0  0  0  0  0  0  0  0  0
   20.3094   -1.4285   -0.3454 O   0  0  0  0  0  0  0  0  0  0  0  0
   19.2534   -1.2161    1.8379 C   0  0  1  0  0  0  0  0  0  0  0  0
   20.2911   -0.3002    2.2404 O   0  0  0  0  0  0  0  0  0  0  0  0
   17.9441   -0.8580    2.5484 C   0  0  1  0  0  0  0  0  0  0  0  0
   17.7644    0.5609    2.3723 O   0  0  0  0  0  0  0  0  0  0  0  0
   14.1919   -1.4877    6.4681 N   0  0  0  0  0  0  0  0  0  0  0  0
   12.9921   -0.7199    6.7791 C   0  0  0  0  0  0  0  0  0  0  0  0
   14.4796   -2.5053    7.4814 C   0  0  0  0  0  0  0  0  0  0  0  0
   15.7314   -6.9714    7.5755 H   0  0  0  0  0  0  0  0  0  0  0  0
   17.0893   -6.0561    6.8997 H   0  0  0  0  0  0  0  0  0  0  0  0
   15.4181   -5.6109    6.4961 H   0  0  0  0  0  0  0  0  0  0  0  0
   16.5949   -5.5201    9.3206 H   0  0  0  0  0  0  0  0  0  0  0  0
   15.0001   -4.9493    8.8557 H   0  0  0  0  0  0  0  0  0  0  0  0
   17.6942   -3.7847    7.9635 H   0  0  0  0  0  0  0  0  0  0  0  0
   16.6313   -3.1031    9.1845 H   0  0  0  0  0  0  0  0  0  0  0  0
   15.9653   -3.4080    6.2078 H   0  0  0  0  0  0  0  0  0  0  0  0
   17.4142   -1.5420    6.2610 H   0  0  0  0  0  0  0  0  0  0  0  0
   16.8836   -1.0510    7.8796 H   0  0  0  0  0  0  0  0  0  0  0  0
   15.3028    0.3048    6.9418 H   0  0  0  0  0  0  0  0  0  0  0  0
   14.8019   -2.0565    4.4376 H   0  0  0  0  0  0  0  0  0  0  0  0
   15.2659   -0.1149    2.2966 H   0  0  0  0  0  0  0  0  0  0  0  0
   13.2429   -1.4863    2.5094 H   0  0  0  0  0  0  0  0  0  0  0  0
   14.4955   -2.2398   -0.1625 H   0  0  0  0  0  0  0  0  0  0  0  0
   13.9417   -0.5978    0.2226 H   0  0  0  0  0  0  0  0  0  0  0  0
   12.8117   -1.9546    0.2411 H   0  0  0  0  0  0  0  0  0  0  0  0
   16.8819   -2.7155    2.2734 H   0  0  0  0  0  0  0  0  0  0  0  0
   17.7412   -1.7875   -1.2023 H   0  0  0  0  0  0  0  0  0  0  0  0
   16.8220   -5.4843   -0.9756 H   0  0  0  0  0  0  0  0  0  0  0  0
   16.6917   -3.9646   -1.8804 H   0  0  0  0  0  0  0  0  0  0  0  0
   15.8482   -4.1631   -0.3165 H   0  0  0  0  0  0  0  0  0  0  0  0
   18.8659   -0.0681    0.0642 H   0  0  0  0  0  0  0  0  0  0  0  0
   21.0111   -1.0265    0.2048 H   0  0  0  0  0  0  0  0  0  0  0  0
   19.5957   -2.2159    2.1245 H   0  0  0  0  0  0  0  0  0  0  0  0
   19.8380    0.5667    2.3181 H   0  0  0  0  0  0  0  0  0  0  0  0
   18.0731   -1.0333    3.6222 H   0  0  0  0  0  0  0  0  0  0  0  0
   17.1853    0.8623    3.1113 H   0  0  0  0  0  0  0  0  0  0  0  0
   12.7932    0.0153    5.9918 H   0  0  0  0  0  0  0  0  0  0  0  0
   13.0741   -0.1883    7.7339 H   0  0  0  0  0  0  0  0  0  0  0  0
   12.1194   -1.3799    6.8273 H   0  0  0  0  0  0  0  0  0  0  0  0
   13.8141   -3.3676    7.3757 H   0  0  0  0  0  0  0  0  0  0  0  0
   14.3908   -2.1070    8.5004 H   0  0  0  0  0  0  0  0  0  0  0  0
  1  2  1  0  0  0  0
  1 28  1  0  0  0  0
  1 29  1  0  0  0  0
  1 30  1  0  0  0  0
  2  3  1  0  0  0  0
  2 31  1  0  0  0  0
  2 32  1  0  0  0  0
  3  4  1  0  0  0  0
  3 33  1  0  0  0  0
  3 34  1  0  0  0  0
  4  5  1  0  0  0  0
  4 27  1  0  0  0  0
  4 35  1  6  0  0  0
  5  6  1  0  0  0  0
  5 36  1  0  0  0  0
  5 37  1  0  0  0  0
  6 25  1  0  0  0  0
  6  7  1  0  0  0  0
  6 38  1  1  0  0  0
  7  8  2  0  0  0  0
  7  9  1  0  0  0  0
  9 10  1  0  0  0  0
  9 39  1  0  0  0  0
 10 11  1  0  0  0  0
 10 40  1  0  0  0  0
 11 12  1  0  0  0  0
 11 13  1  0  0  0  0
 11 41  1  0  0  0  0
 12 42  1  0  0  0  0
 12 43  1  0  0  0  0
 12 44  1  0  0  0  0
 14 15  1  0  0  0  0
 14 23  1  0  0  0  0
 14 10  1  0  0  0  0
 14 45  1  1  0  0  0
 15 16  1  0  0  0  0
 16 17  1  0  0  0  0
 16 19  1  0  0  0  0
 16 46  1  6  0  0  0
 17 18  1  0  0  0  0
 18 47  1  0  0  0  0
 18 48  1  0  0  0  0
 18 49  1  0  0  0  0
 19 20  1  0  0  0  0
 19 21  1  0  0  0  0
 19 50  1  6  0  0  0
 20 51  1  0  0  0  0
 21 22  1  0  0  0  0
 21 23  1  0  0  0  0
 21 52  1  1  0  0  0
 22 53  1  0  0  0  0
 23 24  1  0  0  0  0
 23 54  1  1  0  0  0
 24 55  1  0  0  0  0
 25 26  1  0  0  0  0
 25 27  1  0  0  0  0
 26 56  1  0  0  0  0
 26 57  1  0  0  0  0
 26 58  1  0  0  0  0
 27 59  1  0  0  0  0
 27 60  1  0  0  0  0
M  END
$$$$
