CHEBI:18101
 OpenBabel04242423323D

 19 19  0  0  0  0  0  0  0  0999 V2000
    2.2162   -0.9964    0.6407 O   0  0  0  0  0  0  0  0  0  0  0  0
    3.2317   -0.3186    0.7339 C   0  0  0  0  0  0  0  0  0  0  0  0
    3.6320    0.1911    1.9202 O   0  0  0  0  0  0  0  0  0  0  0  0
    4.0669    0.0719   -0.4671 C   0  0  0  0  0  0  0  0  0  0  0  0
    5.5323    0.3099   -0.1853 C   0  0  0  0  0  0  0  0  0  0  0  0
    6.3692   -0.7608    0.1661 C   0  0  0  0  0  0  0  0  0  0  0  0
    7.7180   -0.5412    0.4535 C   0  0  0  0  0  0  0  0  0  0  0  0
    8.2297    0.7499    0.3878 C   0  0  0  0  0  0  0  0  0  0  0  0
    9.5390    1.0110    0.6610 O   0  0  0  0  0  0  0  0  0  0  0  0
    7.4166    1.8212    0.0387 C   0  0  0  0  0  0  0  0  0  0  0  0
    6.0689    1.6039   -0.2495 C   0  0  0  0  0  0  0  0  0  0  0  0
    4.4549    0.7168    1.8768 H   0  0  0  0  0  0  0  0  0  0  0  0
    3.6112    0.9669   -0.9063 H   0  0  0  0  0  0  0  0  0  0  0  0
    3.9902   -0.7302   -1.2113 H   0  0  0  0  0  0  0  0  0  0  0  0
    5.9754   -1.7750    0.2188 H   0  0  0  0  0  0  0  0  0  0  0  0
    8.3479   -1.3835    0.7235 H   0  0  0  0  0  0  0  0  0  0  0  0
    9.9907    0.1737    0.8574 H   0  0  0  0  0  0  0  0  0  0  0  0
    7.8344    2.8232   -0.0139 H   0  0  0  0  0  0  0  0  0  0  0  0
    5.4481    2.4532   -0.5288 H   0  0  0  0  0  0  0  0  0  0  0  0
  1  2  2  0  0  0  0
  2  3  1  0  0  0  0
  2  4  1  0  0  0  0
  3 12  1  0  0  0  0
  4  5  1  0  0  0  0
  4 13  1  0  0  0  0
  4 14  1  0  0  0  0
  5  6  1  0  0  0  0
  5 11  2  0  0  0  0
  6  7  2  0  0  0  0
  6 15  1  0  0  0  0
  7  8  1  0  0  0  0
  7 16  1  0  0  0  0
  8  9  1  0  0  0  0
  8 10  2  0  0  0  0
  9 17  1  0  0  0  0
 10 11  1  0  0  0  0
 10 18  1  0  0  0  0
 11 19  1  0  0  0  0
M  END
$$$$
