CHEBI:16697
 OpenBabel04242415053D

 20 21  0  0  0  0  0  0  0  0999 V2000
    0.9683    0.1014   -0.4746 O   0  0  0  0  0  0  0  0  0  0  0  0
    2.3554    0.0379   -0.1953 C   0  0  0  0  0  0  0  0  0  0  0  0
    2.7552    1.0696    0.8720 C   0  0  0  0  0  0  0  0  0  0  0  0
    3.7859    0.4069    1.7977 C   0  0  0  0  0  0  0  0  0  0  0  0
    3.5265   -1.0493    1.5795 C   0  0  0  0  0  0  0  0  0  0  0  0
    4.0298   -2.1153    2.3062 C   0  0  0  0  0  0  0  0  0  0  0  0
    3.7023   -3.4116    1.9001 C   0  0  0  0  0  0  0  0  0  0  0  0
    2.8852   -3.6226    0.7792 C   0  0  0  0  0  0  0  0  0  0  0  0
    2.3867   -2.5418    0.0507 C   0  0  0  0  0  0  0  0  0  0  0  0
    2.7136   -1.2573    0.4615 C   0  0  0  0  0  0  0  0  0  0  0  0
    0.7606    1.0230   -0.6977 H   0  0  0  0  0  0  0  0  0  0  0  0
    2.9272    0.1689   -1.1201 H   0  0  0  0  0  0  0  0  0  0  0  0
    1.8792    1.3879    1.4522 H   0  0  0  0  0  0  0  0  0  0  0  0
    3.1635    1.9772    0.4123 H   0  0  0  0  0  0  0  0  0  0  0  0
    3.6197    0.6993    2.8390 H   0  0  0  0  0  0  0  0  0  0  0  0
    4.8083    0.6594    1.5000 H   0  0  0  0  0  0  0  0  0  0  0  0
    4.6689   -1.9547    3.1687 H   0  0  0  0  0  0  0  0  0  0  0  0
    4.0866   -4.2644    2.4532 H   0  0  0  0  0  0  0  0  0  0  0  0
    2.6421   -4.6374    0.4729 H   0  0  0  0  0  0  0  0  0  0  0  0
    1.7577   -2.6994   -0.8199 H   0  0  0  0  0  0  0  0  0  0  0  0
  1  2  1  0  0  0  0
  1 11  1  0  0  0  0
  2  3  1  0  0  0  0
  2 10  1  0  0  0  0
  2 12  1  0  0  0  0
  3  4  1  0  0  0  0
  3 13  1  0  0  0  0
  3 14  1  0  0  0  0
  4  5  1  0  0  0  0
  4 15  1  0  0  0  0
  4 16  1  0  0  0  0
  5  6  1  0  0  0  0
  5 10  2  0  0  0  0
  6  7  2  0  0  0  0
  6 17  1  0  0  0  0
  7  8  1  0  0  0  0
  7 18  1  0  0  0  0
  8  9  2  0  0  0  0
  8 19  1  0  0  0  0
  9 10  1  0  0  0  0
  9 20  1  0  0  0  0
M  END
$$$$
