CHEBI:21891
 OpenBabel04252409393D

 35 37  0  0  1  0  0  0  0  0999 V2000
    0.6600    1.4398   -2.0586 C   0  0  0  0  0  0  0  0  0  0  0  0
    1.7842    0.6980   -1.5332 N   0  0  0  0  0  0  0  0  0  0  0  0
    2.8571    0.5341   -2.4151 C   0  0  0  0  0  0  0  0  0  0  0  0
    3.1217    1.4589   -3.3752 N   0  0  0  0  0  0  0  0  0  0  0  0
    4.1803    1.2664   -4.1885 C   0  0  0  0  0  0  0  0  0  0  0  0
    5.0511    0.2378   -4.2003 N   0  0  0  0  0  0  0  0  0  0  0  0
    4.7575   -0.6547   -3.2396 C   0  0  0  0  0  0  0  0  0  0  0  0
    3.7068   -0.5885   -2.3368 C   0  0  0  0  0  0  0  0  0  0  0  0
    3.6916   -1.6985   -1.5154 N   0  0  0  0  0  0  0  0  0  0  0  0
    4.7246   -2.4149   -1.9031 C   0  0  0  0  0  0  0  0  0  0  0  0
    5.4112   -1.8176   -2.9314 N   0  0  0  0  0  0  0  0  0  0  0  0
    6.5900   -2.3839   -3.5598 C   0  0  2  0  0  0  0  0  0  0  0  0
    7.4706   -1.3356   -4.0146 O   0  0  0  0  0  0  0  0  0  0  0  0
    7.9133   -1.6617   -5.3554 C   0  0  2  0  0  0  0  0  0  0  0  0
    7.2327   -0.7220   -6.3566 C   0  0  0  0  0  0  0  0  0  0  0  0
    7.4785    0.6320   -5.9924 O   0  0  0  0  0  0  0  0  0  0  0  0
    7.5372   -3.1201   -5.5916 C   0  0  1  0  0  0  0  0  0  0  0  0
    8.5196   -4.0089   -5.0285 O   0  0  0  0  0  0  0  0  0  0  0  0
    6.2683   -3.2671   -4.7656 C   0  0  1  0  0  0  0  0  0  0  0  0
    6.0356   -4.6297   -4.4124 O   0  0  0  0  0  0  0  0  0  0  0  0
   -0.1362    1.4660   -1.3080 H   0  0  0  0  0  0  0  0  0  0  0  0
    0.2541    0.9675   -2.9599 H   0  0  0  0  0  0  0  0  0  0  0  0
    0.9308    2.4773   -2.2825 H   0  0  0  0  0  0  0  0  0  0  0  0
    1.5630   -0.1916   -1.0899 H   0  0  0  0  0  0  0  0  0  0  0  0
    4.3509    2.0417   -4.9307 H   0  0  0  0  0  0  0  0  0  0  0  0
    5.0201   -3.3686   -1.4823 H   0  0  0  0  0  0  0  0  0  0  0  0
    7.1253   -2.9450   -2.7834 H   0  0  0  0  0  0  0  0  0  0  0  0
    8.9965   -1.5010   -5.3726 H   0  0  0  0  0  0  0  0  0  0  0  0
    6.1488   -0.8660   -6.3889 H   0  0  0  0  0  0  0  0  0  0  0  0
    7.6257   -0.8842   -7.3649 H   0  0  0  0  0  0  0  0  0  0  0  0
    7.1122    0.7189   -5.0860 H   0  0  0  0  0  0  0  0  0  0  0  0
    7.4074   -3.3954   -6.6420 H   0  0  0  0  0  0  0  0  0  0  0  0
    9.3658   -3.8409   -5.4847 H   0  0  0  0  0  0  0  0  0  0  0  0
    5.3972   -2.8951   -5.3164 H   0  0  0  0  0  0  0  0  0  0  0  0
    6.9242   -5.0445   -4.3670 H   0  0  0  0  0  0  0  0  0  0  0  0
  1  2  1  0  0  0  0
  1 21  1  0  0  0  0
  1 22  1  0  0  0  0
  1 23  1  0  0  0  0
  2  3  1  0  0  0  0
  2 24  1  0  0  0  0
  3  4  1  0  0  0  0
  3  8  2  0  0  0  0
  4  5  2  0  0  0  0
  5  6  1  0  0  0  0
  5 25  1  0  0  0  0
  6  7  2  0  0  0  0
  7  8  1  0  0  0  0
  7 11  1  0  0  0  0
  8  9  1  0  0  0  0
  9 10  2  0  0  0  0
 10 11  1  0  0  0  0
 10 26  1  0  0  0  0
 11 12  1  0  0  0  0
 12 13  1  0  0  0  0
 12 19  1  0  0  0  0
 12 27  1  1  0  0  0
 13 14  1  0  0  0  0
 14 15  1  0  0  0  0
 14 17  1  0  0  0  0
 14 28  1  6  0  0  0
 15 16  1  0  0  0  0
 15 29  1  0  0  0  0
 15 30  1  0  0  0  0
 16 31  1  0  0  0  0
 17 18  1  0  0  0  0
 17 19  1  0  0  0  0
 17 32  1  6  0  0  0
 18 33  1  0  0  0  0
 19 20  1  0  0  0  0
 19 34  1  6  0  0  0
 20 35  1  0  0  0  0
M  END
$$$$
