CHEBI:4629
 OpenBabel04242410593D

 72 77  0  0  1  0  0  0  0  0999 V2000
   -0.5772    0.5945    0.8602 C   0  0  0  0  0  0  0  0  0  0  0  0
    0.8342    1.1587    1.0195 C   0  0  2  0  0  0  0  0  0  0  0  0
    0.7940    2.5890    1.5793 C   0  0  0  0  0  0  0  0  0  0  0  0
    0.5078    3.6562    0.4988 C   0  0  0  0  0  0  0  0  0  0  0  0
    1.4651    3.4615   -0.6811 C   0  0  1  0  0  0  0  0  0  0  0  0
    1.2044    2.1499   -1.1893 O   0  0  0  0  0  0  0  0  0  0  0  0
    1.5888    1.1015   -0.3068 C   0  0  0  0  0  0  0  0  0  0  0  0
    2.7757    3.5656   -0.1326 O   0  0  0  0  0  0  0  0  0  0  0  0
    3.4566    4.6424   -0.7580 C   0  0  1  0  0  0  0  0  0  0  0  0
    4.8824    4.2447   -0.7712 C   0  0  0  0  0  0  0  0  0  0  0  0
    4.9740    3.3359   -1.9816 C   0  0  1  0  0  0  0  0  0  0  0  0
    5.1675    1.8429   -2.0009 C   0  0  2  0  0  0  0  0  0  0  0  0
    5.6525    1.2812   -0.6867 C   0  0  0  0  0  0  0  0  0  0  0  0
    7.0737    1.6126   -0.4419 C   0  0  0  0  0  0  0  0  0  0  0  0
    7.9663    1.5505   -1.4321 C   0  0  0  0  0  0  0  0  0  0  0  0
    9.4123    1.3216   -1.0466 C   0  0  0  0  0  0  0  0  0  0  0  0
    9.7026   -0.1800   -1.2166 C   0  0  1  0  0  0  0  0  0  0  0  0
    9.0979   -0.9234   -0.1492 O   0  0  0  0  0  0  0  0  0  0  0  0
    9.2187   -0.7534   -2.5606 C   0  0  0  0  0  0  0  0  0  0  0  0
    7.8142   -0.2794   -3.0071 C   0  0  0  0  0  0  0  0  0  0  0  0
    7.5870    1.2652   -2.9005 C   0  0  1  0  0  0  0  0  0  0  0  0
    8.5584    1.9702   -3.8693 C   0  0  0  0  0  0  0  0  0  0  0  0
    6.0527    1.6096   -3.2760 C   0  0  1  0  0  0  0  0  0  0  0  0
    5.7784    2.7458   -4.4507 C   0  0  0  0  0  0  0  0  0  0  0  0
    4.7796    3.9935   -4.1901 C   0  0  0  0  0  0  0  0  0  0  0  0
    3.8404    3.6716   -3.0021 C   0  0  1  0  0  0  0  0  0  0  0  0
    2.9122    2.6102   -3.6579 C   0  0  0  0  0  0  0  0  0  0  0  0
    2.9666    4.7333   -2.2090 C   0  0  1  0  0  0  0  0  0  0  0  0
    1.4516    4.4564   -1.8888 C   0  0  2  0  0  0  0  0  0  0  0  0
    0.7376    5.7755   -1.5564 C   0  0  0  0  0  0  0  0  0  0  0  0
   -1.0820    0.5545    1.8311 H   0  0  0  0  0  0  0  0  0  0  0  0
   -0.5419   -0.4278    0.4672 H   0  0  0  0  0  0  0  0  0  0  0  0
   -1.1841    1.1984    0.1800 H   0  0  0  0  0  0  0  0  0  0  0  0
    1.3571    0.5101    1.7347 H   0  0  0  0  0  0  0  0  0  0  0  0
    1.7717    2.8013    2.0343 H   0  0  0  0  0  0  0  0  0  0  0  0
    0.0635    2.6686    2.3916 H   0  0  0  0  0  0  0  0  0  0  0  0
    0.6466    4.6387    0.9630 H   0  0  0  0  0  0  0  0  0  0  0  0
   -0.5327    3.5679    0.1703 H   0  0  0  0  0  0  0  0  0  0  0  0
    2.6704    1.1389   -0.1427 H   0  0  0  0  0  0  0  0  0  0  0  0
    1.3973    0.1537   -0.8233 H   0  0  0  0  0  0  0  0  0  0  0  0
    3.2887    5.5569   -0.1797 H   0  0  0  0  0  0  0  0  0  0  0  0
    5.2229    3.7907    0.1608 H   0  0  0  0  0  0  0  0  0  0  0  0
    5.4929    5.1438   -0.9372 H   0  0  0  0  0  0  0  0  0  0  0  0
    5.9533    3.7211   -2.3173 H   0  0  0  0  0  0  0  0  0  0  0  0
    4.2173    1.3257   -2.1560 H   0  0  0  0  0  0  0  0  0  0  0  0
    5.5432    0.1892   -0.6839 H   0  0  0  0  0  0  0  0  0  0  0  0
    5.0298    1.6332    0.1418 H   0  0  0  0  0  0  0  0  0  0  0  0
    7.3802    1.6882    0.6021 H   0  0  0  0  0  0  0  0  0  0  0  0
    9.5853    1.6141   -0.0025 H   0  0  0  0  0  0  0  0  0  0  0  0
   10.0825    1.9351   -1.6534 H   0  0  0  0  0  0  0  0  0  0  0  0
   10.7798   -0.3478   -1.1174 H   0  0  0  0  0  0  0  0  0  0  0  0
    8.1420   -0.7405   -0.1716 H   0  0  0  0  0  0  0  0  0  0  0  0
    9.2042   -1.8490   -2.5038 H   0  0  0  0  0  0  0  0  0  0  0  0
    9.9438   -0.4873   -3.3367 H   0  0  0  0  0  0  0  0  0  0  0  0
    7.0661   -0.8063   -2.3982 H   0  0  0  0  0  0  0  0  0  0  0  0
    7.6484   -0.6106   -4.0401 H   0  0  0  0  0  0  0  0  0  0  0  0
    9.6021    1.6727   -3.7344 H   0  0  0  0  0  0  0  0  0  0  0  0
    8.5315    3.0571   -3.7349 H   0  0  0  0  0  0  0  0  0  0  0  0
    8.3186    1.7253   -4.9101 H   0  0  0  0  0  0  0  0  0  0  0  0
    5.6582    0.6891   -3.7342 H   0  0  0  0  0  0  0  0  0  0  0  0
    5.3771    2.1937   -5.3126 H   0  0  0  0  0  0  0  0  0  0  0  0
    6.7048    3.1834   -4.8238 H   0  0  0  0  0  0  0  0  0  0  0  0
    4.2276    4.2160   -5.1124 H   0  0  0  0  0  0  0  0  0  0  0  0
    5.3786    4.8922   -3.9863 H   0  0  0  0  0  0  0  0  0  0  0  0
    3.4296    1.8970   -4.3064 H   0  0  0  0  0  0  0  0  0  0  0  0
    2.1793    3.1054   -4.3079 H   0  0  0  0  0  0  0  0  0  0  0  0
    2.3757    1.9908   -2.9554 H   0  0  0  0  0  0  0  0  0  0  0  0
    3.1348    5.7265   -2.6403 H   0  0  0  0  0  0  0  0  0  0  0  0
    0.9292    4.0315   -2.7509 H   0  0  0  0  0  0  0  0  0  0  0  0
    1.1772    6.2837   -0.6922 H   0  0  0  0  0  0  0  0  0  0  0  0
   -0.3208    5.5980   -1.3393 H   0  0  0  0  0  0  0  0  0  0  0  0
    0.7883    6.4642   -2.4060 H   0  0  0  0  0  0  0  0  0  0  0  0
  1  2  1  0  0  0  0
  1 31  1  0  0  0  0
  1 32  1  0  0  0  0
  1 33  1  0  0  0  0
  2  3  1  0  0  0  0
  2  7  1  0  0  0  0
  2 34  1  1  0  0  0
  3  4  1  0  0  0  0
  3 35  1  0  0  0  0
  3 36  1  0  0  0  0
  4  5  1  0  0  0  0
  4 37  1  0  0  0  0
  4 38  1  0  0  0  0
  5  6  1  1  0  0  0
  5  8  1  0  0  0  0
  5 29  1  0  0  0  0
  6  7  1  0  0  0  0
  7 39  1  0  0  0  0
  7 40  1  0  0  0  0
  8  9  1  0  0  0  0
  9 10  1  0  0  0  0
  9 28  1  0  0  0  0
  9 41  1  1  0  0  0
 10 11  1  0  0  0  0
 10 42  1  0  0  0  0
 10 43  1  0  0  0  0
 11 12  1  0  0  0  0
 11 26  1  0  0  0  0
 11 44  1  6  0  0  0
 12 13  1  0  0  0  0
 12 23  1  0  0  0  0
 12 45  1  6  0  0  0
 13 14  1  0  0  0  0
 13 46  1  0  0  0  0
 13 47  1  0  0  0  0
 14 15  2  0  0  0  0
 14 48  1  0  0  0  0
 15 16  1  0  0  0  0
 15 21  1  0  0  0  0
 16 17  1  0  0  0  0
 16 49  1  0  0  0  0
 16 50  1  0  0  0  0
 17 18  1  0  0  0  0
 17 19  1  0  0  0  0
 17 51  1  1  0  0  0
 18 52  1  0  0  0  0
 19 20  1  0  0  0  0
 19 53  1  0  0  0  0
 19 54  1  0  0  0  0
 20 21  1  0  0  0  0
 20 55  1  0  0  0  0
 20 56  1  0  0  0  0
 21 22  1  1  0  0  0
 21 23  1  0  0  0  0
 22 57  1  0  0  0  0
 22 58  1  0  0  0  0
 22 59  1  0  0  0  0
 23 24  1  0  0  0  0
 23 60  1  1  0  0  0
 24 25  1  0  0  0  0
 24 61  1  0  0  0  0
 24 62  1  0  0  0  0
 25 26  1  0  0  0  0
 25 63  1  0  0  0  0
 25 64  1  0  0  0  0
 26 27  1  6  0  0  0
 26 28  1  0  0  0  0
 27 65  1  0  0  0  0
 27 66  1  0  0  0  0
 27 67  1  0  0  0  0
 28 29  1  0  0  0  0
 28 68  1  6  0  0  0
 29 30  1  0  0  0  0
 29 69  1  6  0  0  0
 30 70  1  0  0  0  0
 30 71  1  0  0  0  0
 30 72  1  0  0  0  0
M  END
$$$$
