CHEBI:18209
 OpenBabel04252409113D

 54 53  0  0  1  0  0  0  0  0999 V2000
    4.0529   -1.5195    0.0621 C   0  0  0  0  0  0  0  0  0  0  0  0
    5.1388   -0.5162   -0.3263 C   0  0  1  0  0  0  0  0  0  0  0  0
    6.3871   -1.0940    0.0724 O   0  0  0  0  0  0  0  0  0  0  0  0
    7.3151   -1.7454   -1.0531 P   0  0  0  0  0  0  0  0  0  0  0  0
    6.8483   -2.9954   -1.7010 O   0  0  0  0  0  0  0  0  0  0  0  0
    7.5428   -0.5120   -2.0475 O   0  0  0  0  0  0  0  0  0  0  0  0
    8.7371   -1.8401   -0.3445 O   0  0  0  0  0  0  0  0  0  0  0  0
    4.9882    0.8229    0.4176 C   0  0  2  0  0  0  0  0  0  0  0  0
    3.6341    1.3932    0.4192 N   0  0  0  0  0  0  0  0  0  0  0  0
    3.0212    1.7675   -0.7599 C   0  0  0  0  0  0  0  0  0  0  0  0
    3.4572    1.4569   -1.8622 O   0  0  0  0  0  0  0  0  0  0  0  0
    1.7358    2.5456   -0.5455 C   0  0  0  0  0  0  0  0  0  0  0  0
    1.5028    3.5937   -1.6312 C   0  0  0  0  0  0  0  0  0  0  0  0
    0.3172    4.4945   -1.2728 C   0  0  0  0  0  0  0  0  0  0  0  0
    0.1206    5.6017   -2.3069 C   0  0  0  0  0  0  0  0  0  0  0  0
   -1.0723    6.4961   -1.9554 C   0  0  0  0  0  0  0  0  0  0  0  0
   -1.1758    7.6542   -2.9451 C   0  0  0  0  0  0  0  0  0  0  0  0
   -2.7591    8.5278   -2.7349 S   0  0  0  0  0  0  0  0  0  0  0  0
   -2.6472    9.9680   -4.2011 S   0  0  0  0  0  0  0  0  0  0  0  0
   -2.8525    9.0263   -5.7555 C   0  0  0  0  0  0  0  0  0  0  0  0
   -4.1180    8.1931   -5.7998 C   0  0  0  0  0  0  0  0  0  0  0  0
   -4.2096    7.3613   -7.3736 S   0  0  0  0  0  0  0  0  0  0  0  0
   -4.4286    8.3285   -8.4232 O   0  0  0  0  0  0  0  0  0  0  0  0
   -3.1808    6.3502   -7.4470 O   0  0  0  0  0  0  0  0  0  0  0  0
   -5.6269    6.6211   -7.1563 O   0  0  0  0  0  0  0  0  0  0  0  0
    5.9521    1.9714    0.0571 C   0  0  0  0  0  0  0  0  0  0  0  0
    5.8573    3.0690    0.6067 O   0  0  0  0  0  0  0  0  0  0  0  0
    6.9068    1.7575   -0.8634 O   0  0  0  0  0  0  0  0  0  0  0  0
    4.2550   -2.4982   -0.3865 H   0  0  0  0  0  0  0  0  0  0  0  0
    3.0611   -1.1943   -0.2645 H   0  0  0  0  0  0  0  0  0  0  0  0
    4.0316   -1.6728    1.1471 H   0  0  0  0  0  0  0  0  0  0  0  0
    5.1162   -0.3737   -1.4113 H   0  0  0  0  0  0  0  0  0  0  0  0
    8.0855   -0.7957   -2.8116 H   0  0  0  0  0  0  0  0  0  0  0  0
    8.8010   -2.6071    0.2534 H   0  0  0  0  0  0  0  0  0  0  0  0
    5.2120    0.6194    1.4750 H   0  0  0  0  0  0  0  0  0  0  0  0
    3.4126    1.9579    1.2312 H   0  0  0  0  0  0  0  0  0  0  0  0
    1.7675    3.0381    0.4331 H   0  0  0  0  0  0  0  0  0  0  0  0
    0.9096    1.8259   -0.5288 H   0  0  0  0  0  0  0  0  0  0  0  0
    1.3201    3.1012   -2.5943 H   0  0  0  0  0  0  0  0  0  0  0  0
    2.4058    4.2044   -1.7555 H   0  0  0  0  0  0  0  0  0  0  0  0
    0.4859    4.9488   -0.2886 H   0  0  0  0  0  0  0  0  0  0  0  0
   -0.5945    3.8896   -1.1971 H   0  0  0  0  0  0  0  0  0  0  0  0
   -0.0406    5.1549   -3.2958 H   0  0  0  0  0  0  0  0  0  0  0  0
    1.0306    6.2102   -2.3712 H   0  0  0  0  0  0  0  0  0  0  0  0
   -0.9585    6.8881   -0.9369 H   0  0  0  0  0  0  0  0  0  0  0  0
   -1.9856    5.8878   -1.9725 H   0  0  0  0  0  0  0  0  0  0  0  0
   -1.1257    7.2676   -3.9677 H   0  0  0  0  0  0  0  0  0  0  0  0
   -0.3481    8.3545   -2.7918 H   0  0  0  0  0  0  0  0  0  0  0  0
   -1.9624    8.4060   -5.9055 H   0  0  0  0  0  0  0  0  0  0  0  0
   -2.8556    9.7586   -6.5704 H   0  0  0  0  0  0  0  0  0  0  0  0
   -5.0144    8.8128   -5.7019 H   0  0  0  0  0  0  0  0  0  0  0  0
   -4.1261    7.4062   -5.0403 H   0  0  0  0  0  0  0  0  0  0  0  0
   -6.2244    6.8868   -7.8886 H   0  0  0  0  0  0  0  0  0  0  0  0
    6.9549    0.8846   -1.3146 H   0  0  0  0  0  0  0  0  0  0  0  0
  1  2  1  0  0  0  0
  1 29  1  0  0  0  0
  1 30  1  0  0  0  0
  1 31  1  0  0  0  0
  2  3  1  0  0  0  0
  2 32  1  1  0  0  0
  3  4  1  0  0  0  0
  4  5  2  0  0  0  0
  4  6  1  0  0  0  0
  4  7  1  0  0  0  0
  6 33  1  0  0  0  0
  7 34  1  0  0  0  0
  8 26  1  0  0  0  0
  8  9  1  0  0  0  0
  8  2  1  0  0  0  0
  8 35  1  1  0  0  0
  9 10  1  0  0  0  0
  9 36  1  0  0  0  0
 10 11  2  0  0  0  0
 10 12  1  0  0  0  0
 12 13  1  0  0  0  0
 12 37  1  0  0  0  0
 12 38  1  0  0  0  0
 13 14  1  0  0  0  0
 13 39  1  0  0  0  0
 13 40  1  0  0  0  0
 14 15  1  0  0  0  0
 14 41  1  0  0  0  0
 14 42  1  0  0  0  0
 15 16  1  0  0  0  0
 15 43  1  0  0  0  0
 15 44  1  0  0  0  0
 16 17  1  0  0  0  0
 16 45  1  0  0  0  0
 16 46  1  0  0  0  0
 17 18  1  0  0  0  0
 17 47  1  0  0  0  0
 17 48  1  0  0  0  0
 18 19  1  0  0  0  0
 19 20  1  0  0  0  0
 20 21  1  0  0  0  0
 20 49  1  0  0  0  0
 20 50  1  0  0  0  0
 21 22  1  0  0  0  0
 21 51  1  0  0  0  0
 21 52  1  0  0  0  0
 22 23  2  0  0  0  0
 22 24  2  0  0  0  0
 22 25  1  0  0  0  0
 25 53  1  0  0  0  0
 26 27  2  0  0  0  0
 26 28  1  0  0  0  0
 28 54  1  0  0  0  0
M  END
$$$$
