CHEBI:17261
 OpenBabel04242416073D

 44 44  0  0  1  0  0  0  0  0999 V2000
    5.2198    8.2551    0.8120 C   0  0  0  0  0  0  0  0  0  0  0  0
    5.8049    7.0098    0.2033 C   0  0  0  0  0  0  0  0  0  0  0  0
    5.4642    5.8829    0.5478 O   0  0  0  0  0  0  0  0  0  0  0  0
    6.7160    7.2503   -0.7977 N   0  0  0  0  0  0  0  0  0  0  0  0
    7.3246    6.1684   -1.5822 C   0  0  2  0  0  0  0  0  0  0  0  0
    6.2992    5.4443   -2.4729 C   0  0  1  0  0  0  0  0  0  0  0  0
    5.7611    6.3657   -3.4415 O   0  0  0  0  0  0  0  0  0  0  0  0
    6.9594    4.2785   -3.2206 C   0  0  2  0  0  0  0  0  0  0  0  0
    5.9612    3.6026   -3.9913 O   0  0  0  0  0  0  0  0  0  0  0  0
    7.6383    3.3586   -2.2004 C   0  0  1  0  0  0  0  0  0  0  0  0
    8.2717    2.1183   -2.8415 C   0  0  0  0  0  0  0  0  0  0  0  0
    9.0735    2.4744   -3.9668 O   0  0  0  0  0  0  0  0  0  0  0  0
    8.6735    4.0989   -1.5356 O   0  0  0  0  0  0  0  0  0  0  0  0
    8.1486    5.1542   -0.7323 C   0  0  1  0  0  0  0  0  0  0  0  0
    9.3281    5.7920   -0.1924 N   0  0  0  0  0  0  0  0  0  0  0  0
    9.6000    5.8548    1.1456 C   0  0  0  0  0  0  0  0  0  0  0  0
    8.9062    5.3481    2.0213 O   0  0  0  0  0  0  0  0  0  0  0  0
   10.9008    6.5623    1.4676 C   0  0  0  0  0  0  0  0  0  0  0  0
   10.8530    7.2653    2.8244 C   0  0  2  0  0  0  0  0  0  0  0  0
   10.6960    6.3412    3.9892 N   0  0  0  0  0  0  0  0  0  0  0  0
    9.7177    8.3028    2.8488 C   0  0  0  0  0  0  0  0  0  0  0  0
    9.4539    9.0734    1.9388 O   0  0  0  0  0  0  0  0  0  0  0  0
    9.0603    8.2894    4.0362 O   0  0  0  0  0  0  0  0  0  0  0  0
    5.0597    8.0943    1.8816 H   0  0  0  0  0  0  0  0  0  0  0  0
    4.2663    8.4777    0.3260 H   0  0  0  0  0  0  0  0  0  0  0  0
    5.8938    9.1082    0.6926 H   0  0  0  0  0  0  0  0  0  0  0  0
    6.7188    8.1730   -1.2146 H   0  0  0  0  0  0  0  0  0  0  0  0
    8.0211    6.6891   -2.2551 H   0  0  0  0  0  0  0  0  0  0  0  0
    5.4455    5.0785   -1.8912 H   0  0  0  0  0  0  0  0  0  0  0  0
    5.2115    5.8126   -4.0319 H   0  0  0  0  0  0  0  0  0  0  0  0
    7.6900    4.6957   -3.9261 H   0  0  0  0  0  0  0  0  0  0  0  0
    6.4459    3.0841   -4.6624 H   0  0  0  0  0  0  0  0  0  0  0  0
    6.9164    3.0021   -1.4533 H   0  0  0  0  0  0  0  0  0  0  0  0
    7.5022    1.4220   -3.1884 H   0  0  0  0  0  0  0  0  0  0  0  0
    8.9106    1.6058   -2.1138 H   0  0  0  0  0  0  0  0  0  0  0  0
    9.7633    1.7917   -4.0474 H   0  0  0  0  0  0  0  0  0  0  0  0
    7.5567    4.7156    0.0768 H   0  0  0  0  0  0  0  0  0  0  0  0
   10.0184    6.0901   -0.8645 H   0  0  0  0  0  0  0  0  0  0  0  0
   11.1147    7.2993    0.6836 H   0  0  0  0  0  0  0  0  0  0  0  0
   11.7046    5.8172    1.4473 H   0  0  0  0  0  0  0  0  0  0  0  0
   11.7840    7.8223    2.9816 H   0  0  0  0  0  0  0  0  0  0  0  0
   11.5355    5.7587    4.0488 H   0  0  0  0  0  0  0  0  0  0  0  0
    9.9557    5.6630    3.7298 H   0  0  0  0  0  0  0  0  0  0  0  0
    9.4704    7.5562    4.5616 H   0  0  0  0  0  0  0  0  0  0  0  0
  1  2  1  0  0  0  0
  1 24  1  0  0  0  0
  1 25  1  0  0  0  0
  1 26  1  0  0  0  0
  2  3  2  0  0  0  0
  2  4  1  0  0  0  0
  4 27  1  0  0  0  0
  5  6  1  0  0  0  0
  5 14  1  0  0  0  0
  5  4  1  0  0  0  0
  5 28  1  6  0  0  0
  6  7  1  0  0  0  0
  6  8  1  0  0  0  0
  6 29  1  1  0  0  0
  7 30  1  0  0  0  0
  8  9  1  0  0  0  0
  8 10  1  0  0  0  0
  8 31  1  6  0  0  0
  9 32  1  0  0  0  0
 10 11  1  0  0  0  0
 10 13  1  0  0  0  0
 10 33  1  1  0  0  0
 11 12  1  0  0  0  0
 11 34  1  0  0  0  0
 11 35  1  0  0  0  0
 12 36  1  0  0  0  0
 13 14  1  0  0  0  0
 14 15  1  0  0  0  0
 14 37  1  1  0  0  0
 15 16  1  0  0  0  0
 15 38  1  0  0  0  0
 16 17  2  0  0  0  0
 16 18  1  0  0  0  0
 18 39  1  0  0  0  0
 18 40  1  0  0  0  0
 19 21  1  0  0  0  0
 19 20  1  0  0  0  0
 19 18  1  0  0  0  0
 19 41  1  1  0  0  0
 20 42  1  0  0  0  0
 20 43  1  0  0  0  0
 21 22  2  0  0  0  0
 21 23  1  0  0  0  0
 23 44  1  0  0  0  0
M  END
$$$$
