CHEBI:17667
 OpenBabel04242417043D

 17 16  0  0  0  0  0  0  0  0999 V2000
    0.5864   -0.3984   -0.9849 C   0  0  0  0  0  0  0  0  0  0  0  0
    2.0300   -0.5747   -0.5257 C   0  0  0  0  0  0  0  0  0  0  0  0
    2.3094   -1.9990   -0.0578 C   0  0  0  0  0  0  0  0  0  0  0  0
    2.8494   -0.3395   -1.6847 O   0  0  0  0  0  0  0  0  0  0  0  0
    2.4224    0.4362    0.5521 C   0  0  0  0  0  0  0  0  0  0  0  0
    3.4005    1.1836    0.4799 O   0  0  0  0  0  0  0  0  0  0  0  0
    1.5963    0.5060    1.8352 C   0  0  0  0  0  0  0  0  0  0  0  0
    0.6725   -0.2346    2.0953 O   0  0  0  0  0  0  0  0  0  0  0  0
    2.0593    1.4904    2.6315 O   0  0  0  0  0  0  0  0  0  0  0  0
    0.3888   -0.9902   -1.8863 H   0  0  0  0  0  0  0  0  0  0  0  0
    0.3891    0.6476   -1.2476 H   0  0  0  0  0  0  0  0  0  0  0  0
   -0.1382   -0.6954   -0.2218 H   0  0  0  0  0  0  0  0  0  0  0  0
    2.1519   -2.7155   -0.8721 H   0  0  0  0  0  0  0  0  0  0  0  0
    1.6754   -2.2907    0.7848 H   0  0  0  0  0  0  0  0  0  0  0  0
    3.3545   -2.1061    0.2556 H   0  0  0  0  0  0  0  0  0  0  0  0
    3.7433   -0.1005   -1.3714 H   0  0  0  0  0  0  0  0  0  0  0  0
    2.8327    1.9272    2.2008 H   0  0  0  0  0  0  0  0  0  0  0  0
  1  2  1  0  0  0  0
  1 10  1  0  0  0  0
  1 11  1  0  0  0  0
  1 12  1  0  0  0  0
  2  3  1  0  0  0  0
  2  4  1  0  0  0  0
  2  5  1  0  0  0  0
  3 13  1  0  0  0  0
  3 14  1  0  0  0  0
  3 15  1  0  0  0  0
  4 16  1  0  0  0  0
  5  6  2  0  0  0  0
  5  7  1  0  0  0  0
  7  8  2  0  0  0  0
  7  9  1  0  0  0  0
  9 17  1  0  0  0  0
M  END
$$$$
