CHEBI:16977
 OpenBabel04242415383D

 13 12  0  0  1  0  0  0  0  0999 V2000
    3.0679    1.4754   -0.3509 C   0  0  0  0  0  0  0  0  0  0  0  0
    2.5126    0.1335    0.1104 C   0  0  2  0  0  0  0  0  0  0  0  0
    1.0385    0.1723    0.1560 N   0  0  0  0  0  0  0  0  0  0  0  0
    3.0839   -0.2837    1.4727 C   0  0  0  0  0  0  0  0  0  0  0  0
    3.6744   -1.3348    1.6736 O   0  0  0  0  0  0  0  0  0  0  0  0
    2.8199    0.5954    2.4701 O   0  0  0  0  0  0  0  0  0  0  0  0
    4.1620    1.4822   -0.2964 H   0  0  0  0  0  0  0  0  0  0  0  0
    2.7051    2.3077    0.2621 H   0  0  0  0  0  0  0  0  0  0  0  0
    2.7788    1.6787   -1.3880 H   0  0  0  0  0  0  0  0  0  0  0  0
    2.8154   -0.6300   -0.6158 H   0  0  0  0  0  0  0  0  0  0  0  0
    0.6978    0.6798    0.9690 H   0  0  0  0  0  0  0  0  0  0  0  0
    0.6988   -0.7857    0.2762 H   0  0  0  0  0  0  0  0  0  0  0  0
    2.3494    1.3937    2.1674 H   0  0  0  0  0  0  0  0  0  0  0  0
  1  7  1  0  0  0  0
  1  8  1  0  0  0  0
  1  9  1  0  0  0  0
  2  4  1  0  0  0  0
  2  3  1  0  0  0  0
  2  1  1  0  0  0  0
  2 10  1  6  0  0  0
  3 11  1  0  0  0  0
  3 12  1  0  0  0  0
  4  5  2  0  0  0  0
  4  6  1  0  0  0  0
  6 13  1  0  0  0  0
M  END
$$$$
