CHEBI:2873
 OpenBabel04242410403D

 83 87  0  0  1  0  0  0  0  0999 V2000
    0.7241   -0.0524    0.3528 C   0  0  0  0  0  0  0  0  0  0  0  0
    2.2418    0.2005    0.2933 C   0  0  1  0  0  0  0  0  0  0  0  0
    2.6213    1.4413    1.1531 C   0  0  2  0  0  0  0  0  0  0  0  0
    1.9813    2.7347    0.6373 C   0  0  0  0  0  0  0  0  0  0  0  0
    4.1426    1.6337    1.2380 C   0  0  0  0  0  0  0  0  0  0  0  0
    4.8575    0.3859    1.7547 C   0  0  0  0  0  0  0  0  0  0  0  0
    4.5781   -0.8587    0.8798 C   0  0  2  0  0  0  0  0  0  0  0  0
    5.2495   -0.6061   -0.4970 C   0  0  0  0  0  0  0  0  0  0  0  0
    4.6685   -0.3839   -1.5482 O   0  0  0  0  0  0  0  0  0  0  0  0
    6.6041   -0.5538   -0.4652 O   0  0  0  0  0  0  0  0  0  0  0  0
    5.2137   -2.1245    1.5475 C   0  0  0  0  0  0  0  0  0  0  0  0
    4.7158   -3.4973    1.0171 C   0  0  0  0  0  0  0  0  0  0  0  0
    3.1596   -3.6419    0.9342 C   0  0  2  0  0  0  0  0  0  0  0  0
    2.6152   -3.5736    2.3971 C   0  0  0  0  0  0  0  0  0  0  0  0
    2.7723   -2.4043    0.1216 C   0  0  0  0  0  0  0  0  0  0  0  0
    2.6255   -2.4853   -1.2113 C   0  0  0  0  0  0  0  0  0  0  0  0
    3.0233   -3.7062   -1.9710 C   0  0  0  0  0  0  0  0  0  0  0  0
    2.5025   -5.0032   -1.3535 C   0  0  2  0  0  0  0  0  0  0  0  0
    2.8638   -6.3374   -2.1928 C   0  0  1  0  0  0  0  0  0  0  0  0
    1.5109   -7.0642   -2.4494 C   0  0  0  0  0  0  0  0  0  0  0  0
    3.4597   -6.0164   -3.5974 C   0  0  0  0  0  0  0  0  0  0  0  0
    3.9471   -7.2441   -4.3678 C   0  0  1  0  0  0  0  0  0  0  0  0
    4.5464   -6.8378   -5.6081 O   0  0  0  0  0  0  0  0  0  0  0  0
    4.9982   -8.0198   -3.5678 C   0  0  2  0  0  0  0  0  0  0  0  0
    5.4484   -9.1420   -4.3401 O   0  0  0  0  0  0  0  0  0  0  0  0
    4.5120   -8.4718   -2.1643 C   0  0  1  0  0  0  0  0  0  0  0  0
    3.5389   -9.6682   -2.2620 C   0  0  0  0  0  0  0  0  0  0  0  0
    5.7726   -8.9779   -1.3816 C   0  0  0  0  0  0  0  0  0  0  0  0
    6.4479  -10.0570   -2.0214 O   0  0  0  0  0  0  0  0  0  0  0  0
    3.9064   -7.2154   -1.4208 C   0  0  2  0  0  0  0  0  0  0  0  0
    3.3882   -7.5104   -0.0092 C   0  0  0  0  0  0  0  0  0  0  0  0
    3.4571   -6.2275    0.7969 C   0  0  0  0  0  0  0  0  0  0  0  0
    2.6201   -5.0405    0.2467 C   0  0  1  0  0  0  0  0  0  0  0  0
    1.1446   -5.3059    0.7228 C   0  0  0  0  0  0  0  0  0  0  0  0
    3.0198   -1.0540    0.7970 C   0  0  2  0  0  0  0  0  0  0  0  0
    0.1633    0.7838   -0.0747 H   0  0  0  0  0  0  0  0  0  0  0  0
    0.3886   -0.1935    1.3862 H   0  0  0  0  0  0  0  0  0  0  0  0
    0.4361   -0.9409   -0.2162 H   0  0  0  0  0  0  0  0  0  0  0  0
    2.4976    0.4150   -0.7496 H   0  0  0  0  0  0  0  0  0  0  0  0
    2.2521    1.2792    2.1756 H   0  0  0  0  0  0  0  0  0  0  0  0
    2.2265    2.9059   -0.4160 H   0  0  0  0  0  0  0  0  0  0  0  0
    2.3343    3.5987    1.2112 H   0  0  0  0  0  0  0  0  0  0  0  0
    0.8923    2.7113    0.7377 H   0  0  0  0  0  0  0  0  0  0  0  0
    4.3691    2.4679    1.9139 H   0  0  0  0  0  0  0  0  0  0  0  0
    4.5412    1.9165    0.2560 H   0  0  0  0  0  0  0  0  0  0  0  0
    4.5276    0.1963    2.7847 H   0  0  0  0  0  0  0  0  0  0  0  0
    5.9320    0.5955    1.8146 H   0  0  0  0  0  0  0  0  0  0  0  0
    7.0126   -0.6287    0.4144 H   0  0  0  0  0  0  0  0  0  0  0  0
    5.0275   -2.0855    2.6278 H   0  0  0  0  0  0  0  0  0  0  0  0
    6.3057   -2.1227    1.4649 H   0  0  0  0  0  0  0  0  0  0  0  0
    5.1327   -4.2485    1.6978 H   0  0  0  0  0  0  0  0  0  0  0  0
    5.1693   -3.6792    0.0349 H   0  0  0  0  0  0  0  0  0  0  0  0
    3.0861   -2.8022    3.0112 H   0  0  0  0  0  0  0  0  0  0  0  0
    2.7989   -4.5101    2.9337 H   0  0  0  0  0  0  0  0  0  0  0  0
    1.5408   -3.3607    2.4193 H   0  0  0  0  0  0  0  0  0  0  0  0
    2.4811   -1.5911   -1.8140 H   0  0  0  0  0  0  0  0  0  0  0  0
    4.1151   -3.7175   -2.0594 H   0  0  0  0  0  0  0  0  0  0  0  0
    2.6209   -3.5912   -2.9848 H   0  0  0  0  0  0  0  0  0  0  0  0
    1.4241   -4.8716   -1.5401 H   0  0  0  0  0  0  0  0  0  0  0  0
    0.8026   -6.3894   -2.9471 H   0  0  0  0  0  0  0  0  0  0  0  0
    1.0306   -7.4108   -1.5337 H   0  0  0  0  0  0  0  0  0  0  0  0
    1.5951   -7.9222   -3.1121 H   0  0  0  0  0  0  0  0  0  0  0  0
    4.3173   -5.3399   -3.4956 H   0  0  0  0  0  0  0  0  0  0  0  0
    2.7304   -5.4805   -4.2183 H   0  0  0  0  0  0  0  0  0  0  0  0
    3.1192   -7.8984   -4.6524 H   0  0  0  0  0  0  0  0  0  0  0  0
    5.1513   -6.0958   -5.4286 H   0  0  0  0  0  0  0  0  0  0  0  0
    5.8811   -7.3757   -3.4548 H   0  0  0  0  0  0  0  0  0  0  0  0
    5.4353   -8.8399   -5.2729 H   0  0  0  0  0  0  0  0  0  0  0  0
    4.0555  -10.5900   -2.5525 H   0  0  0  0  0  0  0  0  0  0  0  0
    2.7631   -9.5262   -3.0132 H   0  0  0  0  0  0  0  0  0  0  0  0
    3.0525   -9.8720   -1.3032 H   0  0  0  0  0  0  0  0  0  0  0  0
    5.5099   -9.3384   -0.3841 H   0  0  0  0  0  0  0  0  0  0  0  0
    6.4988   -8.1672   -1.2551 H   0  0  0  0  0  0  0  0  0  0  0  0
    6.2943   -9.9729   -2.9874 H   0  0  0  0  0  0  0  0  0  0  0  0
    4.7790   -6.5516   -1.2983 H   0  0  0  0  0  0  0  0  0  0  0  0
    4.0107   -8.2463    0.5059 H   0  0  0  0  0  0  0  0  0  0  0  0
    2.3782   -7.9272   -0.0045 H   0  0  0  0  0  0  0  0  0  0  0  0
    4.5176   -5.9680    0.8349 H   0  0  0  0  0  0  0  0  0  0  0  0
    3.1755   -6.4519    1.8329 H   0  0  0  0  0  0  0  0  0  0  0  0
    0.7048   -6.1727    0.2225 H   0  0  0  0  0  0  0  0  0  0  0  0
    0.5014   -4.4437    0.5114 H   0  0  0  0  0  0  0  0  0  0  0  0
    1.0775   -5.5228    1.7937 H   0  0  0  0  0  0  0  0  0  0  0  0
    2.6604   -1.1515    1.8290 H   0  0  0  0  0  0  0  0  0  0  0  0
  1  2  1  0  0  0  0
  1 36  1  0  0  0  0
  1 37  1  0  0  0  0
  1 38  1  0  0  0  0
  2  3  1  0  0  0  0
  2 35  1  0  0  0  0
  2 39  1  6  0  0  0
  3  5  1  0  0  0  0
  3  4  1  0  0  0  0
  3 40  1  1  0  0  0
  4 41  1  0  0  0  0
  4 42  1  0  0  0  0
  4 43  1  0  0  0  0
  5  6  1  0  0  0  0
  5 44  1  0  0  0  0
  5 45  1  0  0  0  0
  6  7  1  0  0  0  0
  6 46  1  0  0  0  0
  6 47  1  0  0  0  0
  7  8  1  1  0  0  0
  7 11  1  0  0  0  0
  7 35  1  0  0  0  0
  8  9  2  0  0  0  0
  8 10  1  0  0  0  0
 10 48  1  0  0  0  0
 11 12  1  0  0  0  0
 11 49  1  0  0  0  0
 11 50  1  0  0  0  0
 12 13  1  0  0  0  0
 12 51  1  0  0  0  0
 12 52  1  0  0  0  0
 13 14  1  6  0  0  0
 13 15  1  0  0  0  0
 13 33  1  0  0  0  0
 14 53  1  0  0  0  0
 14 54  1  0  0  0  0
 14 55  1  0  0  0  0
 15 16  2  0  0  0  0
 15 35  1  0  0  0  0
 16 17  1  0  0  0  0
 16 56  1  0  0  0  0
 17 18  1  0  0  0  0
 17 57  1  0  0  0  0
 17 58  1  0  0  0  0
 18 19  1  0  0  0  0
 18 33  1  0  0  0  0
 18 59  1  1  0  0  0
 19 20  1  6  0  0  0
 19 21  1  0  0  0  0
 19 30  1  0  0  0  0
 20 60  1  0  0  0  0
 20 61  1  0  0  0  0
 20 62  1  0  0  0  0
 21 22  1  0  0  0  0
 21 63  1  0  0  0  0
 21 64  1  0  0  0  0
 22 24  1  0  0  0  0
 22 23  1  0  0  0  0
 22 65  1  6  0  0  0
 23 66  1  0  0  0  0
 24 26  1  0  0  0  0
 24 25  1  0  0  0  0
 24 67  1  1  0  0  0
 25 68  1  0  0  0  0
 26 27  1  6  0  0  0
 26 28  1  0  0  0  0
 26 30  1  0  0  0  0
 27 69  1  0  0  0  0
 27 70  1  0  0  0  0
 27 71  1  0  0  0  0
 28 29  1  0  0  0  0
 28 72  1  0  0  0  0
 28 73  1  0  0  0  0
 29 74  1  0  0  0  0
 30 31  1  0  0  0  0
 30 75  1  1  0  0  0
 31 32  1  0  0  0  0
 31 76  1  0  0  0  0
 31 77  1  0  0  0  0
 32 33  1  0  0  0  0
 32 78  1  0  0  0  0
 32 79  1  0  0  0  0
 33 34  1  1  0  0  0
 34 80  1  0  0  0  0
 34 81  1  0  0  0  0
 34 82  1  0  0  0  0
 35 83  1  1  0  0  0
M  END
$$$$
