CHEBI:16880
 OpenBabel04242415293D

 20 19  0  0  1  0  0  0  0  0999 V2000
    2.0399   -1.1983   -0.4774 O   0  0  0  0  0  0  0  0  0  0  0  0
    2.8244   -0.2567   -0.3008 C   0  0  0  0  0  0  0  0  0  0  0  0
    3.2625    0.6153   -1.4699 C   0  0  0  0  0  0  0  0  0  0  0  0
    2.5293    0.2961   -2.6487 O   0  0  0  0  0  0  0  0  0  0  0  0
    3.3072    0.0998    1.1073 C   0  0  1  0  0  0  0  0  0  0  0  0
    2.9146   -0.9500    1.9998 O   0  0  0  0  0  0  0  0  0  0  0  0
    4.8245    0.2871    1.1648 C   0  0  1  0  0  0  0  0  0  0  0  0
    5.1831    1.5265    0.5336 O   0  0  0  0  0  0  0  0  0  0  0  0
    5.3612    0.3142    2.6006 C   0  0  0  0  0  0  0  0  0  0  0  0
    6.7623    0.6120    2.5480 O   0  0  0  0  0  0  0  0  0  0  0  0
    4.3213    0.4448   -1.6769 H   0  0  0  0  0  0  0  0  0  0  0  0
    3.0794    1.6661   -1.2342 H   0  0  0  0  0  0  0  0  0  0  0  0
    2.0552   -0.5405   -2.4645 H   0  0  0  0  0  0  0  0  0  0  0  0
    2.7836    1.0142    1.4076 H   0  0  0  0  0  0  0  0  0  0  0  0
    2.1002   -1.3437    1.6213 H   0  0  0  0  0  0  0  0  0  0  0  0
    5.3378   -0.5077    0.6104 H   0  0  0  0  0  0  0  0  0  0  0  0
    6.0542    1.7697    0.9164 H   0  0  0  0  0  0  0  0  0  0  0  0
    5.2184   -0.6351    3.1255 H   0  0  0  0  0  0  0  0  0  0  0  0
    4.8882    1.1164    3.1758 H   0  0  0  0  0  0  0  0  0  0  0  0
    7.2298   -0.2339    2.4241 H   0  0  0  0  0  0  0  0  0  0  0  0
  1  2  2  0  0  0  0
  2  3  1  0  0  0  0
  2  5  1  0  0  0  0
  3  4  1  0  0  0  0
  3 11  1  0  0  0  0
  3 12  1  0  0  0  0
  4 13  1  0  0  0  0
  5  6  1  0  0  0  0
  5  7  1  0  0  0  0
  5 14  1  1  0  0  0
  6 15  1  0  0  0  0
  7  8  1  0  0  0  0
  7  9  1  0  0  0  0
  7 16  1  6  0  0  0
  8 17  1  0  0  0  0
  9 10  1  0  0  0  0
  9 18  1  0  0  0  0
  9 19  1  0  0  0  0
 10 20  1  0  0  0  0
M  END
$$$$
