CHEBI:8890
 OpenBabel04242411153D

 46 47  0  0  1  0  0  0  0  0999 V2000
    1.8331    1.3546    2.3758 C   0  0  0  0  0  0  0  0  0  0  0  0
    2.6469    0.0679    2.3453 C   0  0  0  0  0  0  0  0  0  0  0  0
    4.1133    0.3483    1.9915 C   0  0  0  0  0  0  0  0  0  0  0  0
    4.9062   -0.8812    1.7958 N   0  0  0  0  0  0  0  0  0  0  0  0
    5.1051   -1.6531    3.0400 C   0  0  0  0  0  0  0  0  0  0  0  0
    6.0722   -1.0172    4.0384 C   0  0  0  0  0  0  0  0  0  0  0  0
    7.4202   -0.7318    3.3898 C   0  0  0  0  0  0  0  0  0  0  0  0
    7.2446    0.0801    2.1110 C   0  0  0  0  0  0  0  0  0  0  0  0
    6.2240   -0.5577    1.1562 C   0  0  1  0  0  0  0  0  0  0  0  0
    6.8081   -1.8026    0.4243 C   0  0  0  0  0  0  0  0  0  0  0  0
    7.9944   -1.8586    0.1180 O   0  0  0  0  0  0  0  0  0  0  0  0
    5.8147   -2.6941    0.0609 N   0  0  0  0  0  0  0  0  0  0  0  0
    5.8788   -3.9050   -0.6633 C   0  0  0  0  0  0  0  0  0  0  0  0
    7.0024   -4.7574   -0.7159 C   0  0  0  0  0  0  0  0  0  0  0  0
    8.2588   -4.5813    0.0922 C   0  0  0  0  0  0  0  0  0  0  0  0
    6.9594   -5.9024   -1.5386 C   0  0  0  0  0  0  0  0  0  0  0  0
    5.8132   -6.2463   -2.2445 C   0  0  0  0  0  0  0  0  0  0  0  0
    4.6803   -5.4533   -2.1356 C   0  0  0  0  0  0  0  0  0  0  0  0
    4.6944   -4.2883   -1.3500 C   0  0  0  0  0  0  0  0  0  0  0  0
    3.4305   -3.4656   -1.2995 C   0  0  0  0  0  0  0  0  0  0  0  0
    0.7923    1.1389    2.6371 H   0  0  0  0  0  0  0  0  0  0  0  0
    1.8419    1.8484    1.3988 H   0  0  0  0  0  0  0  0  0  0  0  0
    2.2323    2.0534    3.1181 H   0  0  0  0  0  0  0  0  0  0  0  0
    2.2075   -0.6154    1.6089 H   0  0  0  0  0  0  0  0  0  0  0  0
    2.5659   -0.4098    3.3270 H   0  0  0  0  0  0  0  0  0  0  0  0
    4.5584    1.0044    2.7481 H   0  0  0  0  0  0  0  0  0  0  0  0
    4.1100    0.9148    1.0510 H   0  0  0  0  0  0  0  0  0  0  0  0
    5.4872   -2.6480    2.7778 H   0  0  0  0  0  0  0  0  0  0  0  0
    4.1484   -1.8543    3.5326 H   0  0  0  0  0  0  0  0  0  0  0  0
    6.2142   -1.6928    4.8899 H   0  0  0  0  0  0  0  0  0  0  0  0
    5.6490   -0.0901    4.4421 H   0  0  0  0  0  0  0  0  0  0  0  0
    7.9240   -1.6787    3.1602 H   0  0  0  0  0  0  0  0  0  0  0  0
    8.0648   -0.1903    4.0909 H   0  0  0  0  0  0  0  0  0  0  0  0
    8.2188    0.1940    1.6213 H   0  0  0  0  0  0  0  0  0  0  0  0
    6.9135    1.0923    2.3749 H   0  0  0  0  0  0  0  0  0  0  0  0
    6.0460    0.1477    0.3316 H   0  0  0  0  0  0  0  0  0  0  0  0
    4.8920   -2.3214    0.2681 H   0  0  0  0  0  0  0  0  0  0  0  0
    8.0475   -4.1514    1.0755 H   0  0  0  0  0  0  0  0  0  0  0  0
    8.9872   -3.9769   -0.4549 H   0  0  0  0  0  0  0  0  0  0  0  0
    8.7269   -5.5521    0.2963 H   0  0  0  0  0  0  0  0  0  0  0  0
    7.8298   -6.5528   -1.6105 H   0  0  0  0  0  0  0  0  0  0  0  0
    5.8004   -7.1396   -2.8627 H   0  0  0  0  0  0  0  0  0  0  0  0
    3.7835   -5.7429   -2.6789 H   0  0  0  0  0  0  0  0  0  0  0  0
    2.6417   -3.8952   -1.9264 H   0  0  0  0  0  0  0  0  0  0  0  0
    3.6195   -2.4513   -1.6656 H   0  0  0  0  0  0  0  0  0  0  0  0
    3.0455   -3.4245   -0.2754 H   0  0  0  0  0  0  0  0  0  0  0  0
  1  2  1  0  0  0  0
  1 21  1  0  0  0  0
  1 22  1  0  0  0  0
  1 23  1  0  0  0  0
  2  3  1  0  0  0  0
  2 24  1  0  0  0  0
  2 25  1  0  0  0  0
  3  4  1  0  0  0  0
  3 26  1  0  0  0  0
  3 27  1  0  0  0  0
  4  5  1  0  0  0  0
  4  9  1  0  0  0  0
  5  6  1  0  0  0  0
  5 28  1  0  0  0  0
  5 29  1  0  0  0  0
  6  7  1  0  0  0  0
  6 30  1  0  0  0  0
  6 31  1  0  0  0  0
  7  8  1  0  0  0  0
  7 32  1  0  0  0  0
  7 33  1  0  0  0  0
  8  9  1  0  0  0  0
  8 34  1  0  0  0  0
  8 35  1  0  0  0  0
  9 10  1  0  0  0  0
  9 36  1  6  0  0  0
 10 11  2  0  0  0  0
 10 12  1  0  0  0  0
 12 13  1  0  0  0  0
 12 37  1  0  0  0  0
 13 14  1  0  0  0  0
 13 19  2  0  0  0  0
 14 15  1  0  0  0  0
 14 16  2  0  0  0  0
 15 38  1  0  0  0  0
 15 39  1  0  0  0  0
 15 40  1  0  0  0  0
 16 17  1  0  0  0  0
 16 41  1  0  0  0  0
 17 18  2  0  0  0  0
 17 42  1  0  0  0  0
 18 19  1  0  0  0  0
 18 43  1  0  0  0  0
 19 20  1  0  0  0  0
 20 44  1  0  0  0  0
 20 45  1  0  0  0  0
 20 46  1  0  0  0  0
M  END
$$$$
