CHEBI:16226
 OpenBabel04242414023D

 64 70  0  0  1  0  0  0  0  0999 V2000
    1.4864    0.5440   -0.7322 C   0  0  0  0  0  0  0  0  0  0  0  0
    2.6825    0.8327    0.1743 C   0  0  0  0  0  0  0  0  0  0  0  0
    3.9498    0.3133   -0.5152 C   0  0  0  0  0  0  0  0  0  0  0  0
    2.7990    2.2608    0.2800 O   0  0  0  0  0  0  0  0  0  0  0  0
    2.1791    2.7304    1.4940 C   0  0  1  0  0  0  0  0  0  0  0  0
    3.1116    3.7765    2.0851 C   0  0  0  0  0  0  0  0  0  0  0  0
    2.7008    4.1066    3.4862 C   0  0  0  0  0  0  0  0  0  0  0  0
    2.5791    5.2537    3.8951 O   0  0  0  0  0  0  0  0  0  0  0  0
    2.4907    3.0323    4.2890 O   0  0  0  0  0  0  0  0  0  0  0  0
    2.7020    1.7303    3.7338 C   0  0  0  0  0  0  0  0  0  0  0  0
    1.9191    1.5073    2.4117 C   0  0  2  0  0  0  0  0  0  0  0  0
    0.3369    1.2592    2.6116 C   0  0  1  0  0  0  0  0  0  0  0  0
   -0.3817    2.3958    3.3743 C   0  0  0  0  0  0  0  0  0  0  0  0
   -1.6455    1.9926    4.1184 C   0  0  0  0  0  0  0  0  0  0  0  0
   -1.3786    0.8386    5.1004 C   0  0  1  0  0  0  0  0  0  0  0  0
   -0.2243    1.1557    6.0768 C   0  0  0  0  0  0  0  0  0  0  0  0
   -2.6686    0.4910    5.9374 C   0  0  2  0  0  0  0  0  0  0  0  0
   -3.1811    1.6247    6.7890 C   0  0  0  0  0  0  0  0  0  0  0  0
   -4.1744    2.5891    6.4425 C   0  0  0  0  0  0  0  0  0  0  0  0
   -4.3139    3.4192    7.5294 C   0  0  0  0  0  0  0  0  0  0  0  0
   -3.4909    3.0257    8.5322 O   0  0  0  0  0  0  0  0  0  0  0  0
   -2.8200    1.9347    8.0869 C   0  0  0  0  0  0  0  0  0  0  0  0
   -2.4392   -0.6674    6.7842 O   0  0  0  0  0  0  0  0  0  0  0  0
   -1.8348   -1.7897    6.2984 C   0  0  0  0  0  0  0  0  0  0  0  0
   -1.7259   -2.8098    6.9649 O   0  0  0  0  0  0  0  0  0  0  0  0
   -1.2747   -1.7249    4.9262 C   0  0  1  0  0  0  0  0  0  0  0  0
   -2.1772   -1.2038    3.9552 O   0  0  0  0  0  0  0  0  0  0  0  0
   -1.0156   -0.3781    4.2521 C   0  0  1  0  0  0  0  0  0  0  0  0
   -0.0958   -0.2242    2.9894 C   0  0  1  0  0  0  0  0  0  0  0  0
   -0.8743   -0.8150    1.7673 C   0  0  0  0  0  0  0  0  0  0  0  0
    1.1968   -1.0368    3.1235 C   0  0  0  0  0  0  0  0  0  0  0  0
    1.5353   -1.5801    4.1738 O   0  0  0  0  0  0  0  0  0  0  0  0
    2.1172   -1.0514    1.9218 C   0  0  0  0  0  0  0  0  0  0  0  0
    2.6126    0.3594    1.6351 C   0  0  1  0  0  0  0  0  0  0  0  0
    1.3189   -0.5271   -0.8724 H   0  0  0  0  0  0  0  0  0  0  0  0
    1.6503    0.9819   -1.7251 H   0  0  0  0  0  0  0  0  0  0  0  0
    0.5691    1.0116   -0.3705 H   0  0  0  0  0  0  0  0  0  0  0  0
    4.8499    0.6163    0.0323 H   0  0  0  0  0  0  0  0  0  0  0  0
    4.0529    0.7399   -1.5197 H   0  0  0  0  0  0  0  0  0  0  0  0
    3.9424   -0.7782   -0.5989 H   0  0  0  0  0  0  0  0  0  0  0  0
    1.2414    3.2160    1.2023 H   0  0  0  0  0  0  0  0  0  0  0  0
    3.0736    4.6857    1.4737 H   0  0  0  0  0  0  0  0  0  0  0  0
    4.1581    3.4503    2.0813 H   0  0  0  0  0  0  0  0  0  0  0  0
    3.7863    1.6224    3.6009 H   0  0  0  0  0  0  0  0  0  0  0  0
    2.4376    0.9863    4.4858 H   0  0  0  0  0  0  0  0  0  0  0  0
   -0.0669    1.3960    1.5999 H   0  0  0  0  0  0  0  0  0  0  0  0
   -0.6408    3.1920    2.6638 H   0  0  0  0  0  0  0  0  0  0  0  0
    0.2685    2.8754    4.1008 H   0  0  0  0  0  0  0  0  0  0  0  0
   -2.4211    1.7090    3.3952 H   0  0  0  0  0  0  0  0  0  0  0  0
   -2.0145    2.8792    4.6450 H   0  0  0  0  0  0  0  0  0  0  0  0
   -0.3509    2.1388    6.5421 H   0  0  0  0  0  0  0  0  0  0  0  0
    0.7411    1.1534    5.5798 H   0  0  0  0  0  0  0  0  0  0  0  0
   -0.1420    0.4136    6.8777 H   0  0  0  0  0  0  0  0  0  0  0  0
   -3.4985    0.2242    5.2680 H   0  0  0  0  0  0  0  0  0  0  0  0
   -4.7176    2.6723    5.5114 H   0  0  0  0  0  0  0  0  0  0  0  0
   -4.9267    4.2845    7.7404 H   0  0  0  0  0  0  0  0  0  0  0  0
   -2.1293    1.4932    8.7931 H   0  0  0  0  0  0  0  0  0  0  0  0
   -0.6866   -2.5876    4.6412 H   0  0  0  0  0  0  0  0  0  0  0  0
   -1.8494   -0.3274    1.6490 H   0  0  0  0  0  0  0  0  0  0  0  0
   -1.0377   -1.8938    1.8803 H   0  0  0  0  0  0  0  0  0  0  0  0
   -0.3494   -0.6882    0.8208 H   0  0  0  0  0  0  0  0  0  0  0  0
    1.6182   -1.5274    1.0770 H   0  0  0  0  0  0  0  0  0  0  0  0
    2.9694   -1.7024    2.1552 H   0  0  0  0  0  0  0  0  0  0  0  0
    3.6612    0.3496    1.9707 H   0  0  0  0  0  0  0  0  0  0  0  0
  1  2  1  0  0  0  0
  1 35  1  0  0  0  0
  1 36  1  0  0  0  0
  1 37  1  0  0  0  0
  2  4  1  0  0  0  0
  2 34  1  0  0  0  0
  2  3  1  0  0  0  0
  3 38  1  0  0  0  0
  3 39  1  0  0  0  0
  3 40  1  0  0  0  0
  4  5  1  0  0  0  0
  5  6  1  0  0  0  0
  5 11  1  0  0  0  0
  5 41  1  1  0  0  0
  6  7  1  0  0  0  0
  6 42  1  0  0  0  0
  6 43  1  0  0  0  0
  7  9  1  0  0  0  0
  7  8  2  0  0  0  0
  9 10  1  0  0  0  0
 10 44  1  0  0  0  0
 10 45  1  0  0  0  0
 11 10  1  6  0  0  0
 11 12  1  0  0  0  0
 11 34  1  0  0  0  0
 12 13  1  0  0  0  0
 12 29  1  0  0  0  0
 12 46  1  1  0  0  0
 13 14  1  0  0  0  0
 13 47  1  0  0  0  0
 13 48  1  0  0  0  0
 14 15  1  0  0  0  0
 14 49  1  0  0  0  0
 14 50  1  0  0  0  0
 15 17  1  0  0  0  0
 15 28  1  0  0  0  0
 15 16  1  1  0  0  0
 16 51  1  0  0  0  0
 16 52  1  0  0  0  0
 16 53  1  0  0  0  0
 17 23  1  0  0  0  0
 17 18  1  0  0  0  0
 17 54  1  6  0  0  0
 18 19  1  0  0  0  0
 18 22  2  0  0  0  0
 19 20  2  0  0  0  0
 19 55  1  0  0  0  0
 20 21  1  0  0  0  0
 20 56  1  0  0  0  0
 21 22  1  0  0  0  0
 22 57  1  0  0  0  0
 23 24  1  0  0  0  0
 24 26  1  0  0  0  0
 24 25  2  0  0  0  0
 26 27  1  0  0  0  0
 26 28  1  0  0  0  0
 26 58  1  6  0  0  0
 28 27  1  6  0  0  0
 28 29  1  0  0  0  0
 29 31  1  0  0  0  0
 29 30  1  6  0  0  0
 30 59  1  0  0  0  0
 30 60  1  0  0  0  0
 30 61  1  0  0  0  0
 31 33  1  0  0  0  0
 31 32  2  0  0  0  0
 33 34  1  0  0  0  0
 33 62  1  0  0  0  0
 33 63  1  0  0  0  0
 34 64  1  1  0  0  0
M  END
$$$$
