CHEBI:17947
 OpenBabel04242423193D

 23 23  0  0  1  0  0  0  0  0999 V2000
    1.0605    0.0327    0.3866 O   0  0  0  0  0  0  0  0  0  0  0  0
    2.2645    0.0017    0.1304 C   0  0  0  0  0  0  0  0  0  0  0  0
    2.9788   -1.3108   -0.0575 C   0  0  0  0  0  0  0  0  0  0  0  0
    3.9224   -1.2790   -1.2522 C   0  0  1  0  0  0  0  0  0  0  0  0
    4.8502   -2.3915   -1.0731 O   0  0  0  0  0  0  0  0  0  0  0  0
    3.1269   -1.6311   -2.5280 C   0  0  0  0  0  0  0  0  0  0  0  0
    2.4702   -0.8652   -3.2084 O   0  0  0  0  0  0  0  0  0  0  0  0
    3.2080   -2.9620   -2.8054 O   0  0  0  0  0  0  0  0  0  0  0  0
    4.7784   -0.0078   -1.3404 C   0  0  0  0  0  0  0  0  0  0  0  0
    4.0306    1.3047   -1.0907 C   0  0  1  0  0  0  0  0  0  0  0  0
    3.3057    1.6420   -2.2611 O   0  0  0  0  0  0  0  0  0  0  0  0
    3.1258    1.2604    0.1458 C   0  0  2  0  0  0  0  0  0  0  0  0
    3.8968    1.3492    1.3398 O   0  0  0  0  0  0  0  0  0  0  0  0
    2.2333   -2.1082   -0.1655 H   0  0  0  0  0  0  0  0  0  0  0  0
    3.5261   -1.5274    0.8679 H   0  0  0  0  0  0  0  0  0  0  0  0
    5.5828   -2.2639   -1.7103 H   0  0  0  0  0  0  0  0  0  0  0  0
    3.7447   -3.4037   -2.1076 H   0  0  0  0  0  0  0  0  0  0  0  0
    5.2646    0.0285   -2.3244 H   0  0  0  0  0  0  0  0  0  0  0  0
    5.5913   -0.0846   -0.6051 H   0  0  0  0  0  0  0  0  0  0  0  0
    4.7835    2.0909   -0.9534 H   0  0  0  0  0  0  0  0  0  0  0  0
    2.8601    2.4986   -2.1308 H   0  0  0  0  0  0  0  0  0  0  0  0
    2.4454    2.1196    0.1296 H   0  0  0  0  0  0  0  0  0  0  0  0
    4.5074    0.5969    1.4040 H   0  0  0  0  0  0  0  0  0  0  0  0
  1  2  2  0  0  0  0
  2  3  1  0  0  0  0
  2 12  1  0  0  0  0
  3  4  1  0  0  0  0
  3 14  1  0  0  0  0
  3 15  1  0  0  0  0
  4  9  1  0  0  0  0
  4  6  1  6  0  0  0
  4  5  1  0  0  0  0
  5 16  1  0  0  0  0
  6  7  2  0  0  0  0
  6  8  1  0  0  0  0
  8 17  1  0  0  0  0
  9 10  1  0  0  0  0
  9 18  1  0  0  0  0
  9 19  1  0  0  0  0
 10 12  1  0  0  0  0
 10 11  1  0  0  0  0
 10 20  1  1  0  0  0
 11 21  1  0  0  0  0
 12 13  1  0  0  0  0
 12 22  1  6  0  0  0
 13 23  1  0  0  0  0
M  END
$$$$
