CHEBI:15637
 OpenBabel04242412583D

 57 59  0  0  1  0  0  0  0  0999 V2000
    3.5912    3.7902   -4.8592 N   0  0  0  0  0  0  0  0  0  0  0  0
    4.1518    2.9007   -4.0030 C   0  0  0  0  0  0  0  0  0  0  0  0
    3.7235    2.8106   -2.7859 N   0  0  0  0  0  0  0  0  0  0  0  0
    4.2841    1.8678   -1.9626 C   0  0  0  0  0  0  0  0  0  0  0  0
    5.3085    1.0619   -2.3456 C   0  0  0  0  0  0  0  0  0  0  0  0
    5.7935    1.1959   -3.7485 C   0  0  0  0  0  0  0  0  0  0  0  0
    6.6833    0.4778   -4.1984 O   0  0  0  0  0  0  0  0  0  0  0  0
    5.1481    2.1264   -4.5023 N   0  0  0  0  0  0  0  0  0  0  0  0
    5.8743    0.0769   -1.5284 N   0  0  0  0  0  0  0  0  0  0  0  0
    5.1504   -0.3376   -0.3121 C   0  0  0  0  0  0  0  0  0  0  0  0
    4.0844   -1.4222   -0.6213 C   0  0  0  0  0  0  0  0  0  0  0  0
    4.6280   -2.6259   -1.2749 N   0  0  0  0  0  0  0  0  0  0  0  0
    5.4306   -3.4307   -0.4736 C   0  0  0  0  0  0  0  0  0  0  0  0
    5.6596   -3.2427    0.7178 O   0  0  0  0  0  0  0  0  0  0  0  0
    4.3203   -2.9361   -2.6449 C   0  0  0  0  0  0  0  0  0  0  0  0
    4.5556   -4.2171   -3.1771 C   0  0  0  0  0  0  0  0  0  0  0  0
    4.2899   -4.5169   -4.5208 C   0  0  0  0  0  0  0  0  0  0  0  0
    3.7689   -3.5350   -5.3605 C   0  0  0  0  0  0  0  0  0  0  0  0
    3.5153   -3.8196   -6.7894 C   0  0  0  0  0  0  0  0  0  0  0  0
    2.4580   -3.5004   -7.3244 O   0  0  0  0  0  0  0  0  0  0  0  0
    4.5672   -4.3810   -7.4646 N   0  0  0  0  0  0  0  0  0  0  0  0
    4.4961   -4.7848   -8.8644 C   0  0  1  0  0  0  0  0  0  0  0  0
    4.9049   -3.6684   -9.8336 C   0  0  0  0  0  0  0  0  0  0  0  0
    3.8495   -2.5760  -10.0057 C   0  0  0  0  0  0  0  0  0  0  0  0
    4.0570   -1.3936   -9.0879 C   0  0  0  0  0  0  0  0  0  0  0  0
    5.0288   -0.6557   -9.1437 O   0  0  0  0  0  0  0  0  0  0  0  0
    3.0523   -1.1858   -8.2113 O   0  0  0  0  0  0  0  0  0  0  0  0
    5.4505   -5.9677   -9.0178 C   0  0  0  0  0  0  0  0  0  0  0  0
    6.5441   -6.0795   -8.4833 O   0  0  0  0  0  0  0  0  0  0  0  0
    4.9711   -6.9439   -9.8116 O   0  0  0  0  0  0  0  0  0  0  0  0
    3.4855   -2.2714   -4.8536 C   0  0  0  0  0  0  0  0  0  0  0  0
    3.7606   -1.9808   -3.5105 C   0  0  0  0  0  0  0  0  0  0  0  0
    4.4815    0.9154    0.3301 C   0  0  0  0  0  0  0  0  0  0  0  0
    3.7495    1.6942   -0.6801 N   0  0  0  0  0  0  0  0  0  0  0  0
    2.7263    4.1691   -4.4853 H   0  0  0  0  0  0  0  0  0  0  0  0
    3.4929    3.4802   -5.8176 H   0  0  0  0  0  0  0  0  0  0  0  0
    5.4700    2.2395   -5.4494 H   0  0  0  0  0  0  0  0  0  0  0  0
    6.3365   -0.6564   -2.0656 H   0  0  0  0  0  0  0  0  0  0  0  0
    5.8844   -0.7346    0.3970 H   0  0  0  0  0  0  0  0  0  0  0  0
    3.2390   -1.0160   -1.1825 H   0  0  0  0  0  0  0  0  0  0  0  0
    3.6490   -1.7479    0.3337 H   0  0  0  0  0  0  0  0  0  0  0  0
    5.9010   -4.2736   -0.9948 H   0  0  0  0  0  0  0  0  0  0  0  0
    4.9170   -5.0380   -2.5657 H   0  0  0  0  0  0  0  0  0  0  0  0
    4.4731   -5.5230   -4.8906 H   0  0  0  0  0  0  0  0  0  0  0  0
    5.4650   -4.4891   -6.9974 H   0  0  0  0  0  0  0  0  0  0  0  0
    3.4766   -5.1309   -9.0720 H   0  0  0  0  0  0  0  0  0  0  0  0
    5.0709   -4.1206  -10.8207 H   0  0  0  0  0  0  0  0  0  0  0  0
    5.8669   -3.2369   -9.5291 H   0  0  0  0  0  0  0  0  0  0  0  0
    2.8335   -2.9739   -9.9211 H   0  0  0  0  0  0  0  0  0  0  0  0
    3.9171   -2.1664  -11.0221 H   0  0  0  0  0  0  0  0  0  0  0  0
    2.4534   -1.9684   -8.1211 H   0  0  0  0  0  0  0  0  0  0  0  0
    5.6587   -7.6433   -9.7805 H   0  0  0  0  0  0  0  0  0  0  0  0
    3.0796   -1.4946   -5.4980 H   0  0  0  0  0  0  0  0  0  0  0  0
    3.5470   -0.9672   -3.1884 H   0  0  0  0  0  0  0  0  0  0  0  0
    5.2561    1.5576    0.7671 H   0  0  0  0  0  0  0  0  0  0  0  0
    3.7993    0.6239    1.1356 H   0  0  0  0  0  0  0  0  0  0  0  0
    3.3364    2.5659   -0.3610 H   0  0  0  0  0  0  0  0  0  0  0  0
  1  2  1  0  0  0  0
  1 35  1  0  0  0  0
  1 36  1  0  0  0  0
  2  3  2  0  0  0  0
  2  8  1  0  0  0  0
  3  4  1  0  0  0  0
  4  5  2  0  0  0  0
  4 34  1  0  0  0  0
  5  6  1  0  0  0  0
  5  9  1  0  0  0  0
  6  7  2  0  0  0  0
  6  8  1  0  0  0  0
  8 37  1  0  0  0  0
  9 10  1  0  0  0  0
  9 38  1  0  0  0  0
 10 11  1  0  0  0  0
 10 33  1  0  0  0  0
 10 39  1  0  0  0  0
 11 12  1  0  0  0  0
 11 40  1  0  0  0  0
 11 41  1  0  0  0  0
 12 13  1  0  0  0  0
 12 15  1  0  0  0  0
 13 14  2  0  0  0  0
 13 42  1  0  0  0  0
 15 16  1  0  0  0  0
 15 32  2  0  0  0  0
 16 17  2  0  0  0  0
 16 43  1  0  0  0  0
 17 18  1  0  0  0  0
 17 44  1  0  0  0  0
 18 19  1  0  0  0  0
 18 31  2  0  0  0  0
 19 20  2  0  0  0  0
 19 21  1  0  0  0  0
 21 22  1  0  0  0  0
 21 45  1  0  0  0  0
 22 23  1  0  0  0  0
 22 28  1  0  0  0  0
 22 46  1  6  0  0  0
 23 24  1  0  0  0  0
 23 47  1  0  0  0  0
 23 48  1  0  0  0  0
 24 25  1  0  0  0  0
 24 49  1  0  0  0  0
 24 50  1  0  0  0  0
 25 26  2  0  0  0  0
 25 27  1  0  0  0  0
 27 51  1  0  0  0  0
 28 29  2  0  0  0  0
 28 30  1  0  0  0  0
 30 52  1  0  0  0  0
 31 32  1  0  0  0  0
 31 53  1  0  0  0  0
 32 54  1  0  0  0  0
 33 34  1  0  0  0  0
 33 55  1  0  0  0  0
 33 56  1  0  0  0  0
 34 57  1  0  0  0  0
M  END
$$$$
