CHEBI:18002
 OpenBabel04242423233D

 51 52  0  0  1  0  0  0  0  0999 V2000
   -2.0119    2.8266   -3.4739 C   0  0  0  0  0  0  0  0  0  0  0  0
   -0.7607    3.0134   -3.9157 C   0  0  0  0  0  0  0  0  0  0  0  0
    0.0471    4.2726   -3.6570 C   0  0  1  0  0  0  0  0  0  0  0  0
    1.4327    3.9850   -3.0141 C   0  0  2  0  0  0  0  0  0  0  0  0
    1.2232    3.2269   -1.8141 O   0  0  0  0  0  0  0  0  0  0  0  0
    2.4557    2.8166   -1.2160 C   0  0  2  0  0  0  0  0  0  0  0  0
    3.2072    1.9956   -2.1102 O   0  0  0  0  0  0  0  0  0  0  0  0
    4.4529    1.5768   -1.5353 C   0  0  2  0  0  0  0  0  0  0  0  0
    5.2718    0.8363   -2.6004 C   0  0  0  0  0  0  0  0  0  0  0  0
    6.5852    0.5266   -2.1492 O   0  0  0  0  0  0  0  0  0  0  0  0
    4.1843    0.6890   -0.3094 C   0  0  1  0  0  0  0  0  0  0  0  0
    5.4036    0.2513    0.2990 O   0  0  0  0  0  0  0  0  0  0  0  0
    3.3547    1.4753    0.7078 C   0  0  2  0  0  0  0  0  0  0  0  0
    3.0222    0.6119    1.8057 O   0  0  0  0  0  0  0  0  0  0  0  0
    2.0878    2.0244    0.0547 C   0  0  1  0  0  0  0  0  0  0  0  0
    1.3929    2.8424    1.0088 O   0  0  0  0  0  0  0  0  0  0  0  0
    2.1399    5.1941   -2.6948 O   0  0  0  0  0  0  0  0  0  0  0  0
    1.9369    6.2746   -3.5060 C   0  0  0  0  0  0  0  0  0  0  0  0
    1.0852    6.3395   -4.5406 C   0  0  0  0  0  0  0  0  0  0  0  0
    0.8533    7.6193   -5.2654 C   0  0  0  0  0  0  0  0  0  0  0  0
    0.0311    7.7230   -6.1637 O   0  0  0  0  0  0  0  0  0  0  0  0
    1.6238    8.6208   -4.7768 O   0  0  0  0  0  0  0  0  0  0  0  0
    1.4082    9.8875   -5.3998 C   0  0  0  0  0  0  0  0  0  0  0  0
    0.2359    5.1477   -4.9306 C   0  0  1  0  0  0  0  0  0  0  0  0
    0.8593    4.3725   -6.1106 C   0  0  0  0  0  0  0  0  0  0  0  0
    0.9421    5.1880   -7.3761 C   0  0  0  0  0  0  0  0  0  0  0  0
    2.0051    5.4119   -7.9481 O   0  0  0  0  0  0  0  0  0  0  0  0
   -2.5388    1.8969   -3.6693 H   0  0  0  0  0  0  0  0  0  0  0  0
   -2.5377    3.5832   -2.8988 H   0  0  0  0  0  0  0  0  0  0  0  0
   -0.2792    2.2065   -4.4653 H   0  0  0  0  0  0  0  0  0  0  0  0
   -0.5167    4.8784   -2.9293 H   0  0  0  0  0  0  0  0  0  0  0  0
    2.0456    3.3964   -3.7074 H   0  0  0  0  0  0  0  0  0  0  0  0
    3.0296    3.7112   -0.9417 H   0  0  0  0  0  0  0  0  0  0  0  0
    5.0328    2.4590   -1.2298 H   0  0  0  0  0  0  0  0  0  0  0  0
    4.7731   -0.0903   -2.9046 H   0  0  0  0  0  0  0  0  0  0  0  0
    5.3613    1.4550   -3.5000 H   0  0  0  0  0  0  0  0  0  0  0  0
    6.5028    0.1990   -1.2274 H   0  0  0  0  0  0  0  0  0  0  0  0
    3.6326   -0.2118   -0.6070 H   0  0  0  0  0  0  0  0  0  0  0  0
    5.1328   -0.1195    1.1659 H   0  0  0  0  0  0  0  0  0  0  0  0
    3.9511    2.2880    1.1410 H   0  0  0  0  0  0  0  0  0  0  0  0
    2.3663    1.1121    2.3336 H   0  0  0  0  0  0  0  0  0  0  0  0
    1.4103    1.1979   -0.1938 H   0  0  0  0  0  0  0  0  0  0  0  0
    0.6671    3.2654    0.5072 H   0  0  0  0  0  0  0  0  0  0  0  0
    2.5469    7.1018   -3.1591 H   0  0  0  0  0  0  0  0  0  0  0  0
    1.9757   10.6379   -4.8423 H   0  0  0  0  0  0  0  0  0  0  0  0
    0.3496   10.1646   -5.3667 H   0  0  0  0  0  0  0  0  0  0  0  0
    1.7734    9.8670   -6.4307 H   0  0  0  0  0  0  0  0  0  0  0  0
   -0.7605    5.4982   -5.2340 H   0  0  0  0  0  0  0  0  0  0  0  0
    1.8686    4.0196   -5.8714 H   0  0  0  0  0  0  0  0  0  0  0  0
    0.2558    3.4945   -6.3642 H   0  0  0  0  0  0  0  0  0  0  0  0
   -0.0160    5.5507   -7.7860 H   0  0  0  0  0  0  0  0  0  0  0  0
  1  2  2  0  0  0  0
  1 28  1  0  0  0  0
  1 29  1  0  0  0  0
  2 30  1  0  0  0  0
  3  4  1  0  0  0  0
  3 24  1  0  0  0  0
  3  2  1  0  0  0  0
  3 31  1  1  0  0  0
  4 17  1  0  0  0  0
  4  5  1  0  0  0  0
  4 32  1  6  0  0  0
  6  7  1  0  0  0  0
  6 15  1  0  0  0  0
  6  5  1  0  0  0  0
  6 33  1  1  0  0  0
  7  8  1  0  0  0  0
  8 11  1  0  0  0  0
  8  9  1  0  0  0  0
  8 34  1  1  0  0  0
  9 10  1  0  0  0  0
  9 35  1  0  0  0  0
  9 36  1  0  0  0  0
 10 37  1  0  0  0  0
 11 12  1  0  0  0  0
 11 13  1  0  0  0  0
 11 38  1  6  0  0  0
 12 39  1  0  0  0  0
 13 14  1  0  0  0  0
 13 15  1  0  0  0  0
 13 40  1  1  0  0  0
 14 41  1  0  0  0  0
 15 16  1  0  0  0  0
 15 42  1  6  0  0  0
 16 43  1  0  0  0  0
 17 18  1  0  0  0  0
 18 19  2  0  0  0  0
 18 44  1  0  0  0  0
 19 20  1  0  0  0  0
 19 24  1  0  0  0  0
 20 21  2  0  0  0  0
 20 22  1  0  0  0  0
 22 23  1  0  0  0  0
 23 45  1  0  0  0  0
 23 46  1  0  0  0  0
 23 47  1  0  0  0  0
 24 25  1  0  0  0  0
 24 48  1  6  0  0  0
 25 26  1  0  0  0  0
 25 49  1  0  0  0  0
 25 50  1  0  0  0  0
 26 27  2  0  0  0  0
 26 51  1  0  0  0  0
M  END
$$$$
