CHEBI:15970
 OpenBabel04242413343D

 18 17  0  0  1  0  0  0  0  0999 V2000
    3.5879   -2.0038   -2.4814 N   0  0  0  0  0  0  0  0  0  0  0  0
    3.8528   -0.8039   -3.0389 C   0  0  0  0  0  0  0  0  0  0  0  0
    3.2657    0.2257   -2.7485 O   0  0  0  0  0  0  0  0  0  0  0  0
    4.8605   -0.9196   -3.9306 O   0  0  0  0  0  0  0  0  0  0  0  0
    5.1824    0.2781   -4.6636 C   0  0  0  0  0  0  0  0  0  0  0  0
    6.2275    1.1272   -3.9271 C   0  0  2  0  0  0  0  0  0  0  0  0
    5.7558    1.6880   -2.6163 N   0  0  0  0  0  0  0  0  0  0  0  0
    6.6371    2.2994   -4.8268 C   0  0  0  0  0  0  0  0  0  0  0  0
    6.9310    2.2136   -6.0084 O   0  0  0  0  0  0  0  0  0  0  0  0
    6.6539    3.4689   -4.1343 O   0  0  0  0  0  0  0  0  0  0  0  0
    2.8061   -2.0871   -1.8485 H   0  0  0  0  0  0  0  0  0  0  0  0
    4.0488   -2.8308   -2.8294 H   0  0  0  0  0  0  0  0  0  0  0  0
    4.2772    0.8541   -4.8977 H   0  0  0  0  0  0  0  0  0  0  0  0
    5.5847   -0.0546   -5.6276 H   0  0  0  0  0  0  0  0  0  0  0  0
    7.1283    0.5389   -3.7199 H   0  0  0  0  0  0  0  0  0  0  0  0
    4.7232    1.7415   -2.6555 H   0  0  0  0  0  0  0  0  0  0  0  0
    5.8961    0.9591   -1.9083 H   0  0  0  0  0  0  0  0  0  0  0  0
    6.3672    3.2332   -3.2134 H   0  0  0  0  0  0  0  0  0  0  0  0
  1  2  1  0  0  0  0
  1 11  1  0  0  0  0
  1 12  1  0  0  0  0
  2  3  2  0  0  0  0
  2  4  1  0  0  0  0
  4  5  1  0  0  0  0
  5 13  1  0  0  0  0
  5 14  1  0  0  0  0
  6  8  1  0  0  0  0
  6  7  1  0  0  0  0
  6  5  1  0  0  0  0
  6 15  1  1  0  0  0
  7 16  1  0  0  0  0
  7 17  1  0  0  0  0
  8  9  2  0  0  0  0
  8 10  1  0  0  0  0
 10 18  1  0  0  0  0
M  END
$$$$
