CHEBI:16358
 OpenBabel04242414153D

 55 57  0  0  1  0  0  0  0  0999 V2000
    2.1245    5.0466   -0.7423 N   0  0  0  0  0  0  0  0  0  0  0  0
    2.3265    3.9022   -0.7731 C   0  0  0  0  0  0  0  0  0  0  0  0
    2.6011    2.4439   -0.8314 C   0  0  2  0  0  0  0  0  0  0  0  0
    1.4000    1.7265   -0.5128 O   0  0  0  0  0  0  0  0  0  0  0  0
    1.4840    0.3150   -0.7235 C   0  0  2  0  0  0  0  0  0  0  0  0
    1.7824    0.0324   -2.0890 O   0  0  0  0  0  0  0  0  0  0  0  0
    1.8581   -1.3801   -2.3445 C   0  0  2  0  0  0  0  0  0  0  0  0
    2.4414   -1.6147   -3.7433 C   0  0  0  0  0  0  0  0  0  0  0  0
    1.5318   -1.1770   -4.7548 O   0  0  0  0  0  0  0  0  0  0  0  0
    2.0551   -1.3973   -6.0708 C   0  0  1  0  0  0  0  0  0  0  0  0
    2.1821   -2.8011   -6.3502 O   0  0  0  0  0  0  0  0  0  0  0  0
    0.9320   -3.4945   -6.2256 C   0  0  0  0  0  0  0  0  0  0  0  0
   -0.1102   -2.9395   -7.1988 C   0  0  2  0  0  0  0  0  0  0  0  0
    0.2595   -3.2217   -8.5636 O   0  0  0  0  0  0  0  0  0  0  0  0
   -0.2414   -1.4178   -7.0612 C   0  0  2  0  0  0  0  0  0  0  0  0
   -1.0590   -0.8955   -8.1237 O   0  0  0  0  0  0  0  0  0  0  0  0
    1.1377   -0.7528   -7.1280 C   0  0  1  0  0  0  0  0  0  0  0  0
    1.0101    0.6638   -6.9563 O   0  0  0  0  0  0  0  0  0  0  0  0
    0.4662   -1.9962   -2.1561 C   0  0  1  0  0  0  0  0  0  0  0  0
    0.4708   -3.4042   -2.4075 O   0  0  0  0  0  0  0  0  0  0  0  0
    0.0238   -1.7577   -0.7095 C   0  0  2  0  0  0  0  0  0  0  0  0
   -1.3219   -2.2363   -0.5250 O   0  0  0  0  0  0  0  0  0  0  0  0
    0.1242   -0.2867   -0.3044 C   0  0  1  0  0  0  0  0  0  0  0  0
   -0.0533   -0.1948    1.1205 O   0  0  0  0  0  0  0  0  0  0  0  0
    3.7576    2.0846    0.0924 C   0  0  0  0  0  0  0  0  0  0  0  0
    5.0744    2.1001   -0.3972 C   0  0  0  0  0  0  0  0  0  0  0  0
    6.1430    1.7621    0.4341 C   0  0  0  0  0  0  0  0  0  0  0  0
    5.9099    1.4022    1.7600 C   0  0  0  0  0  0  0  0  0  0  0  0
    4.6110    1.3968    2.2635 C   0  0  0  0  0  0  0  0  0  0  0  0
    3.5422    1.7510    1.4407 C   0  0  0  0  0  0  0  0  0  0  0  0
    2.8775    2.2054   -1.8665 H   0  0  0  0  0  0  0  0  0  0  0  0
    2.2693   -0.1042   -0.0847 H   0  0  0  0  0  0  0  0  0  0  0  0
    2.5681   -1.8277   -1.6354 H   0  0  0  0  0  0  0  0  0  0  0  0
    3.3781   -1.0544   -3.8445 H   0  0  0  0  0  0  0  0  0  0  0  0
    2.6516   -2.6823   -3.8718 H   0  0  0  0  0  0  0  0  0  0  0  0
    3.0477   -0.9356   -6.1383 H   0  0  0  0  0  0  0  0  0  0  0  0
    0.5767   -3.4419   -5.1920 H   0  0  0  0  0  0  0  0  0  0  0  0
    1.1364   -4.5460   -6.4518 H   0  0  0  0  0  0  0  0  0  0  0  0
   -1.0801   -3.4210   -7.0396 H   0  0  0  0  0  0  0  0  0  0  0  0
    1.1330   -3.6574   -8.5547 H   0  0  0  0  0  0  0  0  0  0  0  0
   -0.7413   -1.1546   -6.1220 H   0  0  0  0  0  0  0  0  0  0  0  0
   -0.8957   -1.4895   -8.8867 H   0  0  0  0  0  0  0  0  0  0  0  0
    1.5677   -0.9055   -8.1258 H   0  0  0  0  0  0  0  0  0  0  0  0
    0.2209    0.9155   -7.4762 H   0  0  0  0  0  0  0  0  0  0  0  0
   -0.2635   -1.5415   -2.8373 H   0  0  0  0  0  0  0  0  0  0  0  0
   -0.3450   -3.7560   -1.9974 H   0  0  0  0  0  0  0  0  0  0  0  0
    0.6336   -2.3705   -0.0333 H   0  0  0  0  0  0  0  0  0  0  0  0
   -1.9197   -1.6773   -1.0557 H   0  0  0  0  0  0  0  0  0  0  0  0
   -0.6945    0.2869   -0.7556 H   0  0  0  0  0  0  0  0  0  0  0  0
   -0.8256   -0.7482    1.3442 H   0  0  0  0  0  0  0  0  0  0  0  0
    5.2791    2.3798   -1.4293 H   0  0  0  0  0  0  0  0  0  0  0  0
    7.1592    1.7822    0.0483 H   0  0  0  0  0  0  0  0  0  0  0  0
    6.7426    1.1337    2.4049 H   0  0  0  0  0  0  0  0  0  0  0  0
    4.4284    1.1194    3.2986 H   0  0  0  0  0  0  0  0  0  0  0  0
    2.5329    1.7460    1.8525 H   0  0  0  0  0  0  0  0  0  0  0  0
  1  2  3  0  0  0  0
  3 25  1  0  0  0  0
  3  4  1  0  0  0  0
  3  2  1  0  0  0  0
  3 31  1  6  0  0  0
  5  6  1  0  0  0  0
  5 23  1  0  0  0  0
  5  4  1  0  0  0  0
  5 32  1  1  0  0  0
  6  7  1  0  0  0  0
  7 19  1  0  0  0  0
  7  8  1  0  0  0  0
  7 33  1  1  0  0  0
  8  9  1  0  0  0  0
  8 34  1  0  0  0  0
  8 35  1  0  0  0  0
  9 10  1  0  0  0  0
 10 11  1  0  0  0  0
 10 17  1  0  0  0  0
 10 36  1  6  0  0  0
 11 12  1  0  0  0  0
 12 13  1  0  0  0  0
 12 37  1  0  0  0  0
 12 38  1  0  0  0  0
 13 14  1  0  0  0  0
 13 15  1  0  0  0  0
 13 39  1  1  0  0  0
 14 40  1  0  0  0  0
 15 16  1  0  0  0  0
 15 17  1  0  0  0  0
 15 41  1  1  0  0  0
 16 42  1  0  0  0  0
 17 18  1  0  0  0  0
 17 43  1  6  0  0  0
 18 44  1  0  0  0  0
 19 20  1  0  0  0  0
 19 21  1  0  0  0  0
 19 45  1  6  0  0  0
 20 46  1  0  0  0  0
 21 22  1  0  0  0  0
 21 23  1  0  0  0  0
 21 47  1  1  0  0  0
 22 48  1  0  0  0  0
 23 24  1  0  0  0  0
 23 49  1  6  0  0  0
 24 50  1  0  0  0  0
 25 26  1  0  0  0  0
 25 30  2  0  0  0  0
 26 27  2  0  0  0  0
 26 51  1  0  0  0  0
 27 28  1  0  0  0  0
 27 52  1  0  0  0  0
 28 29  2  0  0  0  0
 28 53  1  0  0  0  0
 29 30  1  0  0  0  0
 29 54  1  0  0  0  0
 30 55  1  0  0  0  0
M  END
$$$$
