CHEBI:16489
 OpenBabel04242414333D

 16 17  0  0  0  0  0  0  0  0999 V2000
    1.2439   -0.0841    0.0640 O   0  0  0  0  0  0  0  0  0  0  0  0
    2.6020   -0.0862    0.0669 C   0  0  0  0  0  0  0  0  0  0  0  0
    3.1589   -1.2908    0.0708 N   0  0  0  0  0  0  0  0  0  0  0  0
    4.4996   -1.2484    0.0732 C   0  0  0  0  0  0  0  0  0  0  0  0
    5.0632   -2.4934    0.0775 O   0  0  0  0  0  0  0  0  0  0  0  0
    5.2988   -0.1139    0.0720 C   0  0  0  0  0  0  0  0  0  0  0  0
    6.6679   -0.1195    0.0744 N   0  0  0  0  0  0  0  0  0  0  0  0
    7.2657    1.0850    0.0731 C   0  0  0  0  0  0  0  0  0  0  0  0
    6.5317    2.2487    0.0697 C   0  0  0  0  0  0  0  0  0  0  0  0
    5.1792    2.2508    0.0671 N   0  0  0  0  0  0  0  0  0  0  0  0
    4.5463    1.0711    0.0682 C   0  0  0  0  0  0  0  0  0  0  0  0
    3.2157    1.0902    0.0656 N   0  0  0  0  0  0  0  0  0  0  0  0
    1.0690   -1.0382    0.0655 H   0  0  0  0  0  0  0  0  0  0  0  0
    4.2801   -3.0691    0.0783 H   0  0  0  0  0  0  0  0  0  0  0  0
    8.3494    1.0875    0.0749 H   0  0  0  0  0  0  0  0  0  0  0  0
    7.0070    3.2233    0.0689 H   0  0  0  0  0  0  0  0  0  0  0  0
  1  2  1  0  0  0  0
  1 13  1  0  0  0  0
  2  3  1  0  0  0  0
  2 12  2  0  0  0  0
  3  4  2  0  0  0  0
  4  5  1  0  0  0  0
  4  6  1  0  0  0  0
  5 14  1  0  0  0  0
  6  7  1  0  0  0  0
  6 11  2  0  0  0  0
  7  8  2  0  0  0  0
  8  9  1  0  0  0  0
  8 15  1  0  0  0  0
  9 10  2  0  0  0  0
  9 16  1  0  0  0  0
 10 11  1  0  0  0  0
 11 12  1  0  0  0  0
M  END
$$$$
