CHEBI:16237
 OpenBabel04242414023D

 17 17  0  0  0  0  0  0  0  0999 V2000
    2.4829    1.0463    3.0917 O   0  0  0  0  0  0  0  0  0  0  0  0
    2.6872   -0.1040    2.6050 C   0  0  0  0  0  0  0  0  0  0  0  0
    2.5587   -1.2401    3.1478 O   0  5  0  0  0  0  0  0  0  0  0  0
    3.0898   -0.1262    1.1311 C   0  0  0  0  0  0  0  0  0  0  0  0
    4.5888   -0.1127    0.9624 C   0  0  0  0  0  0  0  0  0  0  0  0
    5.3074   -1.3147    0.9165 C   0  0  0  0  0  0  0  0  0  0  0  0
    6.6945   -1.3037    0.7622 C   0  0  0  0  0  0  0  0  0  0  0  0
    7.3679   -0.0878    0.6643 C   0  0  0  0  0  0  0  0  0  0  0  0
    9.0795   -0.0725    0.4666 Cl  0  0  0  0  0  0  0  0  0  0  0  0
    6.6694    1.1161    0.7298 C   0  0  0  0  0  0  0  0  0  0  0  0
    5.2823    1.1024    0.8837 C   0  0  0  0  0  0  0  0  0  0  0  0
    2.6479    0.7337    0.6117 H   0  0  0  0  0  0  0  0  0  0  0  0
    2.6664   -1.0141    0.6447 H   0  0  0  0  0  0  0  0  0  0  0  0
    4.7790   -2.2602    1.0235 H   0  0  0  0  0  0  0  0  0  0  0  0
    7.2367   -2.2431    0.7328 H   0  0  0  0  0  0  0  0  0  0  0  0
    7.1919    2.0657    0.6749 H   0  0  0  0  0  0  0  0  0  0  0  0
    4.7339    2.0392    0.9649 H   0  0  0  0  0  0  0  0  0  0  0  0
  1  2  2  0  0  0  0
  2  3  1  0  0  0  0
  2  4  1  0  0  0  0
  4  5  1  0  0  0  0
  4 12  1  0  0  0  0
  4 13  1  0  0  0  0
  5  6  1  0  0  0  0
  5 11  2  0  0  0  0
  6  7  2  0  0  0  0
  6 14  1  0  0  0  0
  7  8  1  0  0  0  0
  7 15  1  0  0  0  0
  8  9  1  0  0  0  0
  8 10  2  0  0  0  0
 10 11  1  0  0  0  0
 10 16  1  0  0  0  0
 11 17  1  0  0  0  0
M  CHG  1   3  -1
M  END
$$$$
