CHEBI:15559
 OpenBabel04242412473D

 53 52  0  0  0  0  0  0  0  0999 V2000
   11.6696   13.5155   -0.8088 C   0  0  0  0  0  0  0  0  0  0  0  0
   12.0982   13.7213   -2.2535 C   0  0  0  0  0  0  0  0  0  0  0  0
   11.4647   12.6757   -3.1689 C   0  0  0  0  0  0  0  0  0  0  0  0
   11.8932   12.8580   -4.6254 C   0  0  0  0  0  0  0  0  0  0  0  0
   11.2419   11.7988   -5.5142 C   0  0  0  0  0  0  0  0  0  0  0  0
   11.5165   12.0257   -6.9903 C   0  0  0  0  0  0  0  0  0  0  0  0
   12.3459   12.8352   -7.4011 O   0  0  0  0  0  0  0  0  0  0  0  0
   10.7283   11.2553   -7.9923 C   0  0  0  0  0  0  0  0  0  0  0  0
   10.1098   10.0980   -7.7189 C   0  0  0  0  0  0  0  0  0  0  0  0
    9.3319    9.3870   -8.7070 C   0  0  0  0  0  0  0  0  0  0  0  0
    8.9861    8.0907   -8.6577 C   0  0  0  0  0  0  0  0  0  0  0  0
    9.3907    7.0573   -7.6447 C   0  0  0  0  0  0  0  0  0  0  0  0
   10.1233    5.9260   -8.3077 C   0  0  0  0  0  0  0  0  0  0  0  0
   11.4472    5.8255   -8.5189 C   0  0  0  0  0  0  0  0  0  0  0  0
   12.5216    6.8009   -8.1291 C   0  0  0  0  0  0  0  0  0  0  0  0
   12.8416    7.8000   -9.2050 C   0  0  0  0  0  0  0  0  0  0  0  0
   13.3930    7.5955  -10.4137 C   0  0  0  0  0  0  0  0  0  0  0  0
   13.8118    6.2859  -11.0197 C   0  0  0  0  0  0  0  0  0  0  0  0
   15.2993    6.2177  -11.3901 C   0  0  0  0  0  0  0  0  0  0  0  0
   15.7560    7.2071  -12.4637 C   0  0  0  0  0  0  0  0  0  0  0  0
   15.1829    6.9146  -13.8246 C   0  0  0  0  0  0  0  0  0  0  0  0
   14.5231    5.9479  -14.1644 O   0  0  0  0  0  0  0  0  0  0  0  0
   15.5100    7.8682  -14.7194 O   0  0  0  0  0  0  0  0  0  0  0  0
   12.1028   14.2901   -0.1687 H   0  0  0  0  0  0  0  0  0  0  0  0
   12.0036   12.5412   -0.4374 H   0  0  0  0  0  0  0  0  0  0  0  0
   10.5801   13.5638   -0.7116 H   0  0  0  0  0  0  0  0  0  0  0  0
   13.1909   13.6639   -2.3178 H   0  0  0  0  0  0  0  0  0  0  0  0
   11.8050   14.7267   -2.5771 H   0  0  0  0  0  0  0  0  0  0  0  0
   10.3721   12.7477   -3.0994 H   0  0  0  0  0  0  0  0  0  0  0  0
   11.7432   11.6711   -2.8282 H   0  0  0  0  0  0  0  0  0  0  0  0
   12.9850   12.7874   -4.7064 H   0  0  0  0  0  0  0  0  0  0  0  0
   11.6139   13.8609   -4.9714 H   0  0  0  0  0  0  0  0  0  0  0  0
   10.1562   11.8252   -5.3638 H   0  0  0  0  0  0  0  0  0  0  0  0
   11.6166   10.8076   -5.2365 H   0  0  0  0  0  0  0  0  0  0  0  0
   10.7211   11.6909   -8.9866 H   0  0  0  0  0  0  0  0  0  0  0  0
   10.1770    9.6538   -6.7309 H   0  0  0  0  0  0  0  0  0  0  0  0
    8.9988    9.9640   -9.5699 H   0  0  0  0  0  0  0  0  0  0  0  0
    8.3758    7.7106   -9.4773 H   0  0  0  0  0  0  0  0  0  0  0  0
    8.4863    6.6552   -7.1717 H   0  0  0  0  0  0  0  0  0  0  0  0
    9.9893    7.4727   -6.8300 H   0  0  0  0  0  0  0  0  0  0  0  0
    9.4930    5.1186   -8.6784 H   0  0  0  0  0  0  0  0  0  0  0  0
   11.8002    4.9364   -9.0386 H   0  0  0  0  0  0  0  0  0  0  0  0
   13.4291    6.2512   -7.8516 H   0  0  0  0  0  0  0  0  0  0  0  0
   12.2312    7.3468   -7.2236 H   0  0  0  0  0  0  0  0  0  0  0  0
   12.5954    8.8294   -8.9474 H   0  0  0  0  0  0  0  0  0  0  0  0
   13.5173    8.4722  -11.0479 H   0  0  0  0  0  0  0  0  0  0  0  0
   13.1908    6.1037  -11.9036 H   0  0  0  0  0  0  0  0  0  0  0  0
   13.6122    5.4595  -10.3311 H   0  0  0  0  0  0  0  0  0  0  0  0
   15.5205    5.1968  -11.7271 H   0  0  0  0  0  0  0  0  0  0  0  0
   15.8985    6.3835  -10.4859 H   0  0  0  0  0  0  0  0  0  0  0  0
   16.8466    7.1418  -12.5543 H   0  0  0  0  0  0  0  0  0  0  0  0
   15.5007    8.2333  -12.1832 H   0  0  0  0  0  0  0  0  0  0  0  0
   15.1049    7.5599  -15.5570 H   0  0  0  0  0  0  0  0  0  0  0  0
  1  2  1  0  0  0  0
  1 24  1  0  0  0  0
  1 25  1  0  0  0  0
  1 26  1  0  0  0  0
  2  3  1  0  0  0  0
  2 27  1  0  0  0  0
  2 28  1  0  0  0  0
  3  4  1  0  0  0  0
  3 29  1  0  0  0  0
  3 30  1  0  0  0  0
  4  5  1  0  0  0  0
  4 31  1  0  0  0  0
  4 32  1  0  0  0  0
  5  6  1  0  0  0  0
  5 33  1  0  0  0  0
  5 34  1  0  0  0  0
  6  7  2  0  0  0  0
  6  8  1  0  0  0  0
  8  9  2  0  0  0  0
  8 35  1  0  0  0  0
  9 10  1  0  0  0  0
  9 36  1  0  0  0  0
 10 11  2  0  0  0  0
 10 37  1  0  0  0  0
 11 12  1  0  0  0  0
 11 38  1  0  0  0  0
 12 13  1  0  0  0  0
 12 39  1  0  0  0  0
 12 40  1  0  0  0  0
 13 14  2  0  0  0  0
 13 41  1  0  0  0  0
 14 15  1  0  0  0  0
 14 42  1  0  0  0  0
 15 16  1  0  0  0  0
 15 43  1  0  0  0  0
 15 44  1  0  0  0  0
 16 17  2  0  0  0  0
 16 45  1  0  0  0  0
 17 18  1  0  0  0  0
 17 46  1  0  0  0  0
 18 19  1  0  0  0  0
 18 47  1  0  0  0  0
 18 48  1  0  0  0  0
 19 20  1  0  0  0  0
 19 49  1  0  0  0  0
 19 50  1  0  0  0  0
 20 21  1  0  0  0  0
 20 51  1  0  0  0  0
 20 52  1  0  0  0  0
 21 22  2  0  0  0  0
 21 23  1  0  0  0  0
 23 53  1  0  0  0  0
M  END
$$$$
