CHEBI:15860
 OpenBabel04242413233D

 24 23  0  0  0  0  0  0  0  0999 V2000
    0.1061    3.5583    1.4311 C   0  0  0  0  0  0  0  0  0  0  0  0
    1.3311    2.8453    0.8812 C   0  0  0  0  0  0  0  0  0  0  0  0
    2.3923    2.6397    1.9619 C   0  0  0  0  0  0  0  0  0  0  0  0
    3.6226    1.9239    1.4034 C   0  0  0  0  0  0  0  0  0  0  0  0
    4.6810    1.7101    2.4835 C   0  0  0  0  0  0  0  0  0  0  0  0
    5.9116    0.9996    1.9507 C   0  0  0  0  0  0  0  0  0  0  0  0
    6.0589    0.6780    0.7775 O   0  0  0  0  0  0  0  0  0  0  0  0
    6.8508    0.7559    2.9313 N   0  0  0  0  0  0  0  0  0  0  0  0
    8.1222    0.1529    2.6203 C   0  0  0  0  0  0  0  0  0  0  0  0
   -0.6400    3.6933    0.6418 H   0  0  0  0  0  0  0  0  0  0  0  0
    0.3697    4.5463    1.8219 H   0  0  0  0  0  0  0  0  0  0  0  0
   -0.3546    2.9806    2.2388 H   0  0  0  0  0  0  0  0  0  0  0  0
    1.7489    3.4332    0.0557 H   0  0  0  0  0  0  0  0  0  0  0  0
    1.0276    1.8762    0.4683 H   0  0  0  0  0  0  0  0  0  0  0  0
    1.9682    2.0534    2.7862 H   0  0  0  0  0  0  0  0  0  0  0  0
    2.6888    3.6113    2.3756 H   0  0  0  0  0  0  0  0  0  0  0  0
    4.0485    2.5103    0.5797 H   0  0  0  0  0  0  0  0  0  0  0  0
    3.3268    0.9554    0.9811 H   0  0  0  0  0  0  0  0  0  0  0  0
    4.2637    1.1096    3.3004 H   0  0  0  0  0  0  0  0  0  0  0  0
    4.9960    2.6769    2.8936 H   0  0  0  0  0  0  0  0  0  0  0  0
    6.7268    1.1772    3.8424 H   0  0  0  0  0  0  0  0  0  0  0  0
    8.8187    0.9441    2.3309 H   0  0  0  0  0  0  0  0  0  0  0  0
    8.0232   -0.5642    1.8012 H   0  0  0  0  0  0  0  0  0  0  0  0
    8.4928   -0.3532    3.5147 H   0  0  0  0  0  0  0  0  0  0  0  0
  1  2  1  0  0  0  0
  1 10  1  0  0  0  0
  1 11  1  0  0  0  0
  1 12  1  0  0  0  0
  2  3  1  0  0  0  0
  2 13  1  0  0  0  0
  2 14  1  0  0  0  0
  3  4  1  0  0  0  0
  3 15  1  0  0  0  0
  3 16  1  0  0  0  0
  4  5  1  0  0  0  0
  4 17  1  0  0  0  0
  4 18  1  0  0  0  0
  5  6  1  0  0  0  0
  5 19  1  0  0  0  0
  5 20  1  0  0  0  0
  6  7  2  0  0  0  0
  6  8  1  0  0  0  0
  8  9  1  0  0  0  0
  8 21  1  0  0  0  0
  9 22  1  0  0  0  0
  9 23  1  0  0  0  0
  9 24  1  0  0  0  0
M  END
$$$$
