CHEBI:16182
 OpenBabel04242413593D

 16 15  0  0  0  0  0  0  0  0999 V2000
    4.2842   -1.0505    0.7467 C   0  0  0  0  0  0  0  0  0  0  0  0
    3.4579    0.1810    1.0962 C   0  0  0  0  0  0  0  0  0  0  0  0
    3.6141    1.3102    0.0694 C   0  0  0  0  0  0  0  0  0  0  0  0
    2.5471    2.3822    0.2801 C   0  0  0  0  0  0  0  0  0  0  0  0
    4.9713    1.9891    0.1342 C   0  0  0  0  0  0  0  0  0  0  0  0
    5.8318    1.7611    0.9775 O   0  0  0  0  0  0  0  0  0  0  0  0
    4.1056   -1.8427    1.4809 H   0  0  0  0  0  0  0  0  0  0  0  0
    5.3559   -0.8325    0.7448 H   0  0  0  0  0  0  0  0  0  0  0  0
    4.0110   -1.4378   -0.2401 H   0  0  0  0  0  0  0  0  0  0  0  0
    3.7374    0.5294    2.0979 H   0  0  0  0  0  0  0  0  0  0  0  0
    2.4051   -0.1232    1.1473 H   0  0  0  0  0  0  0  0  0  0  0  0
    3.5085    0.9020   -0.9429 H   0  0  0  0  0  0  0  0  0  0  0  0
    2.6285    2.8322    1.2760 H   0  0  0  0  0  0  0  0  0  0  0  0
    1.5421    1.9602    0.1760 H   0  0  0  0  0  0  0  0  0  0  0  0
    2.6506    3.1887   -0.4543 H   0  0  0  0  0  0  0  0  0  0  0  0
    5.1571    2.7360   -0.6580 H   0  0  0  0  0  0  0  0  0  0  0  0
  1  2  1  0  0  0  0
  1  7  1  0  0  0  0
  1  8  1  0  0  0  0
  1  9  1  0  0  0  0
  2  3  1  0  0  0  0
  2 10  1  0  0  0  0
  2 11  1  0  0  0  0
  3  4  1  0  0  0  0
  3  5  1  0  0  0  0
  3 12  1  0  0  0  0
  4 13  1  0  0  0  0
  4 14  1  0  0  0  0
  4 15  1  0  0  0  0
  5  6  2  0  0  0  0
  5 16  1  0  0  0  0
M  END
$$$$
