CHEBI:17717
 OpenBabel04242417103D

 11 10  0  0  0  0  0  0  0  0999 V2000
    1.4596    0.3927    0.4497 O   0  0  0  0  0  0  0  0  0  0  0  0
    2.4755   -0.2598    0.2185 C   0  0  0  0  0  0  0  0  0  0  0  0
    3.1354   -0.2686   -1.1170 C   0  0  0  0  0  0  0  0  0  0  0  0
    4.8814   -0.3406   -0.8440 S   0  0  0  0  0  0  0  0  0  0  0  0
    5.3340    0.8681   -0.1966 O   0  0  0  0  0  0  0  0  0  0  0  0
    5.2378   -1.6564   -0.3676 O   0  0  0  0  0  0  0  0  0  0  0  0
    5.3629   -0.2203   -2.3803 O   0  0  0  0  0  0  0  0  0  0  0  0
    2.8681   -0.9619    0.9748 H   0  0  0  0  0  0  0  0  0  0  0  0
    2.8981    0.6434   -1.6679 H   0  0  0  0  0  0  0  0  0  0  0  0
    2.8327   -1.1598   -1.6705 H   0  0  0  0  0  0  0  0  0  0  0  0
    6.0485    0.4822   -2.4329 H   0  0  0  0  0  0  0  0  0  0  0  0
  1  2  2  0  0  0  0
  2  3  1  0  0  0  0
  2  8  1  0  0  0  0
  3  4  1  0  0  0  0
  3  9  1  0  0  0  0
  3 10  1  0  0  0  0
  4  5  2  0  0  0  0
  4  6  2  0  0  0  0
  4  7  1  0  0  0  0
  7 11  1  0  0  0  0
M  END
$$$$
