CHEBI:17313
 OpenBabel04242416153D

 19 20  0  0  0  0  0  0  0  0999 V2000
    0.9345   -0.0365    0.3048 O   0  0  0  0  0  0  0  0  0  0  0  0
    2.1562   -0.0421    0.2051 C   0  0  0  0  0  0  0  0  0  0  0  0
    2.8897   -1.3169    0.1064 C   0  0  0  0  0  0  0  0  0  0  0  0
    4.2200   -1.3744   -0.0060 C   0  0  0  0  0  0  0  0  0  0  0  0
    4.9889   -0.1406   -0.0342 C   0  0  0  0  0  0  0  0  0  0  0  0
    6.3846   -0.1451   -0.1534 C   0  0  0  0  0  0  0  0  0  0  0  0
    7.0969    1.0603   -0.1782 C   0  0  0  0  0  0  0  0  0  0  0  0
    6.4052    2.2645   -0.0826 C   0  0  0  0  0  0  0  0  0  0  0  0
    7.0529    3.4693   -0.1023 O   0  0  0  0  0  0  0  0  0  0  0  0
    5.0171    2.2782    0.0369 C   0  0  0  0  0  0  0  0  0  0  0  0
    4.3640    3.4750    0.1296 O   0  0  0  0  0  0  0  0  0  0  0  0
    4.3157    1.0781    0.0600 C   0  0  0  0  0  0  0  0  0  0  0  0
    2.9119    1.1188    0.1794 O   0  0  0  0  0  0  0  0  0  0  0  0
    2.2790   -2.2111    0.1308 H   0  0  0  0  0  0  0  0  0  0  0  0
    4.7361   -2.3253   -0.0769 H   0  0  0  0  0  0  0  0  0  0  0  0
    6.9293   -1.0839   -0.2282 H   0  0  0  0  0  0  0  0  0  0  0  0
    8.1783    1.0366   -0.2716 H   0  0  0  0  0  0  0  0  0  0  0  0
    8.0074    3.3050   -0.1933 H   0  0  0  0  0  0  0  0  0  0  0  0
    5.0680    4.1515    0.0910 H   0  0  0  0  0  0  0  0  0  0  0  0
  1  2  2  0  0  0  0
  2  3  1  0  0  0  0
  2 13  1  0  0  0  0
  3  4  2  0  0  0  0
  3 14  1  0  0  0  0
  4  5  1  0  0  0  0
  4 15  1  0  0  0  0
  5  6  1  0  0  0  0
  5 12  2  0  0  0  0
  6  7  2  0  0  0  0
  6 16  1  0  0  0  0
  7  8  1  0  0  0  0
  7 17  1  0  0  0  0
  8  9  1  0  0  0  0
  8 10  2  0  0  0  0
  9 18  1  0  0  0  0
 10 11  1  0  0  0  0
 10 12  1  0  0  0  0
 11 19  1  0  0  0  0
 12 13  1  0  0  0  0
M  END
$$$$
