CHEBI:17076
 OpenBabel04242415493D

 79 81  0  0  1  0  0  0  0  0999 V2000
    0.1872   -7.3392   -5.5187 C   0  0  0  0  0  0  0  0  0  0  0  0
    1.4881   -7.4951   -4.8543 N   0  0  0  0  0  0  0  0  0  0  0  0
    1.8380   -8.9332   -4.6302 C   0  0  2  0  0  0  0  0  0  0  0  0
    3.0654   -9.0888   -3.6802 C   0  0  2  0  0  0  0  0  0  0  0  0
    4.3367   -8.8979   -4.3138 O   0  0  0  0  0  0  0  0  0  0  0  0
    4.8161   -7.5409   -4.4646 C   0  0  1  0  0  0  0  0  0  0  0  0
    6.3783   -7.5797   -4.4311 C   0  0  2  0  0  0  0  0  0  0  0  0
    6.9310   -6.2720   -4.2692 O   0  0  0  0  0  0  0  0  0  0  0  0
    8.3722   -6.1714   -4.0847 C   0  0  1  0  0  0  0  0  0  0  0  0
    9.1955   -6.4917   -5.3668 C   0  0  2  0  0  0  0  0  0  0  0  0
   10.6021   -6.6222   -5.1252 O   0  0  0  0  0  0  0  0  0  0  0  0
    9.0483   -5.4546   -6.5069 C   0  0  1  0  0  0  0  0  0  0  0  0
    8.6511   -6.1432   -7.7051 O   0  0  0  0  0  0  0  0  0  0  0  0
    8.0594   -4.3318   -6.1562 C   0  0  2  0  0  0  0  0  0  0  0  0
    7.9938   -3.2864   -7.1945 N   0  0  0  0  0  0  0  0  0  0  0  0
    7.2391   -3.3923   -8.3107 C   0  0  0  0  0  0  0  0  0  0  0  0
    6.9374   -4.4568   -8.9581 N   0  0  0  0  0  0  0  0  0  0  0  0
    6.7859   -2.2096   -8.7626 N   0  0  0  0  0  0  0  0  0  0  0  0
    8.4902   -3.6985   -4.8152 C   0  0  1  0  0  0  0  0  0  0  0  0
    7.5942   -2.6200   -4.4719 O   0  0  0  0  0  0  0  0  0  0  0  0
    8.5853   -4.7076   -3.6227 C   0  0  2  0  0  0  0  0  0  0  0  0
    9.7621   -4.3700   -2.8052 N   0  0  0  0  0  0  0  0  0  0  0  0
   10.8514   -5.0623   -2.4343 C   0  0  0  0  0  0  0  0  0  0  0  0
   11.9606   -4.5206   -2.0834 N   0  0  0  0  0  0  0  0  0  0  0  0
   10.7790   -6.4028   -2.3768 N   0  0  0  0  0  0  0  0  0  0  0  0
    6.7374   -8.0744   -5.7197 O   0  0  0  0  0  0  0  0  0  0  0  0
    5.8275   -7.4874   -6.6699 C   0  0  1  0  0  0  0  0  0  0  0  0
    5.5497   -8.5164   -7.7509 C   0  0  0  0  0  0  0  0  0  0  0  0
    4.6186   -6.9617   -5.8839 C   0  0  1  0  0  0  0  0  0  0  0  0
    3.4009   -7.2549   -6.5574 O   0  0  0  0  0  0  0  0  0  0  0  0
    4.6191   -5.4327   -5.8716 C   0  0  0  0  0  0  0  0  0  0  0  0
    4.5591   -4.7322   -4.8629 O   0  0  0  0  0  0  0  0  0  0  0  0
    2.9797  -10.4166   -3.1284 O   0  0  0  0  0  0  0  0  0  0  0  0
    3.1245  -11.4666   -4.1131 C   0  0  1  0  0  0  0  0  0  0  0  0
    2.7313  -12.7849   -3.4216 C   0  0  0  0  0  0  0  0  0  0  0  0
    3.4545  -12.9482   -2.2023 O   0  0  0  0  0  0  0  0  0  0  0  0
    2.2482  -11.2924   -5.3701 C   0  0  2  0  0  0  0  0  0  0  0  0
    2.7443  -12.1185   -6.4314 O   0  0  0  0  0  0  0  0  0  0  0  0
    2.1851   -9.8356   -5.8440 C   0  0  1  0  0  0  0  0  0  0  0  0
    1.2426   -9.7490   -6.9162 O   0  0  0  0  0  0  0  0  0  0  0  0
   -0.1365   -6.2982   -5.4158 H   0  0  0  0  0  0  0  0  0  0  0  0
   -0.5862   -7.9732   -5.0747 H   0  0  0  0  0  0  0  0  0  0  0  0
    0.2549   -7.5322   -6.5908 H   0  0  0  0  0  0  0  0  0  0  0  0
    1.3837   -7.0650   -3.9278 H   0  0  0  0  0  0  0  0  0  0  0  0
    0.9673   -9.3738   -4.1226 H   0  0  0  0  0  0  0  0  0  0  0  0
    2.9765   -8.4136   -2.8213 H   0  0  0  0  0  0  0  0  0  0  0  0
    4.4253   -6.9097   -3.6593 H   0  0  0  0  0  0  0  0  0  0  0  0
    6.7511   -8.2570   -3.6551 H   0  0  0  0  0  0  0  0  0  0  0  0
    8.6202   -6.8697   -3.2837 H   0  0  0  0  0  0  0  0  0  0  0  0
    8.9106   -7.4764   -5.7389 H   0  0  0  0  0  0  0  0  0  0  0  0
   10.7529   -6.7534   -4.1654 H   0  0  0  0  0  0  0  0  0  0  0  0
   10.0202   -4.9997   -6.7396 H   0  0  0  0  0  0  0  0  0  0  0  0
    9.4013   -6.7208   -7.9469 H   0  0  0  0  0  0  0  0  0  0  0  0
    7.0460   -4.7162   -6.0688 H   0  0  0  0  0  0  0  0  0  0  0  0
    8.0219   -2.3458   -6.8108 H   0  0  0  0  0  0  0  0  0  0  0  0
    7.4728   -5.2372   -8.5397 H   0  0  0  0  0  0  0  0  0  0  0  0
    6.3150   -1.6421   -8.0730 H   0  0  0  0  0  0  0  0  0  0  0  0
    6.1857   -2.3693   -9.5670 H   0  0  0  0  0  0  0  0  0  0  0  0
    9.4660   -3.2182   -4.9673 H   0  0  0  0  0  0  0  0  0  0  0  0
    6.6910   -2.9933   -4.4126 H   0  0  0  0  0  0  0  0  0  0  0  0
    7.7436   -4.4774   -2.9543 H   0  0  0  0  0  0  0  0  0  0  0  0
    9.8667   -3.3617   -2.7196 H   0  0  0  0  0  0  0  0  0  0  0  0
   11.8988   -3.5036   -2.1561 H   0  0  0  0  0  0  0  0  0  0  0  0
   11.6802   -6.7284   -2.0207 H   0  0  0  0  0  0  0  0  0  0  0  0
   10.0791   -6.6906   -1.6996 H   0  0  0  0  0  0  0  0  0  0  0  0
    6.3496   -6.6551   -7.1409 H   0  0  0  0  0  0  0  0  0  0  0  0
    5.1472   -9.4406   -7.3271 H   0  0  0  0  0  0  0  0  0  0  0  0
    6.4855   -8.7901   -8.2508 H   0  0  0  0  0  0  0  0  0  0  0  0
    4.8600   -8.1301   -8.5066 H   0  0  0  0  0  0  0  0  0  0  0  0
    2.6695   -7.0605   -5.9273 H   0  0  0  0  0  0  0  0  0  0  0  0
    4.6390   -4.9587   -6.8701 H   0  0  0  0  0  0  0  0  0  0  0  0
    4.1878  -11.5229   -4.3770 H   0  0  0  0  0  0  0  0  0  0  0  0
    1.6666  -12.7791   -3.1594 H   0  0  0  0  0  0  0  0  0  0  0  0
    2.9238  -13.6506   -4.0624 H   0  0  0  0  0  0  0  0  0  0  0  0
    3.4106  -12.0791   -1.7602 H   0  0  0  0  0  0  0  0  0  0  0  0
    1.2235  -11.6310   -5.1730 H   0  0  0  0  0  0  0  0  0  0  0  0
    2.2959  -11.8078   -7.2427 H   0  0  0  0  0  0  0  0  0  0  0  0
    3.1539   -9.5932   -6.2850 H   0  0  0  0  0  0  0  0  0  0  0  0
    1.5341   -8.9772   -7.4420 H   0  0  0  0  0  0  0  0  0  0  0  0
  1  2  1  0  0  0  0
  1 41  1  0  0  0  0
  1 42  1  0  0  0  0
  1 43  1  0  0  0  0
  2  3  1  0  0  0  0
  2 44  1  0  0  0  0
  3  4  1  0  0  0  0
  3 39  1  0  0  0  0
  3 45  1  1  0  0  0
  4  5  1  0  0  0  0
  4 33  1  0  0  0  0
  4 46  1  1  0  0  0
  6  7  1  0  0  0  0
  6 29  1  0  0  0  0
  6  5  1  0  0  0  0
  6 47  1  1  0  0  0
  7 26  1  0  0  0  0
  7  8  1  0  0  0  0
  7 48  1  1  0  0  0
  9 10  1  0  0  0  0
  9 21  1  0  0  0  0
  9  8  1  0  0  0  0
  9 49  1  1  0  0  0
 10 12  1  0  0  0  0
 10 11  1  0  0  0  0
 10 50  1  6  0  0  0
 11 51  1  0  0  0  0
 12 13  1  0  0  0  0
 12 14  1  0  0  0  0
 12 52  1  6  0  0  0
 13 53  1  0  0  0  0
 14 19  1  0  0  0  0
 14 15  1  0  0  0  0
 14 54  1  1  0  0  0
 15 16  1  0  0  0  0
 15 55  1  0  0  0  0
 16 17  2  0  0  0  0
 16 18  1  0  0  0  0
 17 56  1  0  0  0  0
 18 57  1  0  0  0  0
 18 58  1  0  0  0  0
 19 20  1  0  0  0  0
 19 21  1  0  0  0  0
 19 59  1  6  0  0  0
 20 60  1  0  0  0  0
 21 22  1  0  0  0  0
 21 61  1  1  0  0  0
 22 23  1  0  0  0  0
 22 62  1  0  0  0  0
 23 24  2  0  0  0  0
 23 25  1  0  0  0  0
 24 63  1  0  0  0  0
 25 64  1  0  0  0  0
 25 65  1  0  0  0  0
 26 27  1  0  0  0  0
 27 28  1  0  0  0  0
 27 29  1  0  0  0  0
 27 66  1  6  0  0  0
 28 67  1  0  0  0  0
 28 68  1  0  0  0  0
 28 69  1  0  0  0  0
 29 30  1  6  0  0  0
 29 31  1  0  0  0  0
 30 70  1  0  0  0  0
 31 32  2  0  0  0  0
 31 71  1  0  0  0  0
 33 34  1  0  0  0  0
 34 37  1  0  0  0  0
 34 35  1  0  0  0  0
 34 72  1  6  0  0  0
 35 36  1  0  0  0  0
 35 73  1  0  0  0  0
 35 74  1  0  0  0  0
 36 75  1  0  0  0  0
 37 38  1  0  0  0  0
 37 39  1  0  0  0  0
 37 76  1  1  0  0  0
 38 77  1  0  0  0  0
 39 40  1  0  0  0  0
 39 78  1  6  0  0  0
 40 79  1  0  0  0  0
M  END
$$$$
