CHEBI:17391
 OpenBabel04242416283D

 64 67  0  0  1  0  0  0  0  0999 V2000
    4.5017    2.7418   -0.8266 O   0  0  0  0  0  0  0  0  0  0  0  0
    4.3308    2.7259   -2.0366 C   0  0  0  0  0  0  0  0  0  0  0  0
    4.3985    3.9462   -2.9281 C   0  0  0  0  0  0  0  0  0  0  0  0
    5.5321    3.8947   -3.9020 C   0  0  0  0  0  0  0  0  0  0  0  0
    5.4376    3.7700   -5.2755 C   0  0  0  0  0  0  0  0  0  0  0  0
    6.7031    3.7806   -5.7986 N   0  0  0  0  0  0  0  0  0  0  0  0
    7.6305    3.9301   -4.7952 C   0  0  0  0  0  0  0  0  0  0  0  0
    9.0266    4.0068   -4.8626 C   0  0  0  0  0  0  0  0  0  0  0  0
    9.7211    4.1971   -3.6655 C   0  0  0  0  0  0  0  0  0  0  0  0
    9.0433    4.2996   -2.4530 C   0  0  0  0  0  0  0  0  0  0  0  0
    7.6503    4.1891   -2.3994 C   0  0  0  0  0  0  0  0  0  0  0  0
    6.9256    4.0102   -3.5942 C   0  0  0  0  0  0  0  0  0  0  0  0
    4.0240    1.6183   -2.7635 O   0  0  0  0  0  0  0  0  0  0  0  0
    3.8275    0.3779   -2.0453 C   0  0  2  0  0  0  0  0  0  0  0  0
    5.1584   -0.2230   -1.5559 C   0  0  1  0  0  0  0  0  0  0  0  0
    4.8725   -1.3631   -0.7250 O   0  0  0  0  0  0  0  0  0  0  0  0
    6.1140   -0.6793   -2.6980 C   0  0  2  0  0  0  0  0  0  0  0  0
    7.3522    0.0042   -2.4331 O   0  0  0  0  0  0  0  0  0  0  0  0
    8.4632   -0.1729   -3.3116 C   0  0  0  0  0  0  0  0  0  0  0  0
    9.5344    0.6759   -2.8519 O   0  0  0  0  0  0  0  0  0  0  0  0
    9.9739    0.3598   -1.5168 C   0  0  2  0  0  0  0  0  0  0  0  0
   11.0448    1.3809   -1.1019 C   0  0  0  0  0  0  0  0  0  0  0  0
   12.2454    1.2158   -1.8625 O   0  0  0  0  0  0  0  0  0  0  0  0
   10.4896   -1.0911   -1.4339 C   0  0  2  0  0  0  0  0  0  0  0  0
   11.6913   -1.3123   -2.1987 O   0  0  0  0  0  0  0  0  0  0  0  0
    9.4505   -2.0638   -1.9969 C   0  0  2  0  0  0  0  0  0  0  0  0
   10.0204   -3.3809   -2.1082 O   0  0  0  0  0  0  0  0  0  0  0  0
    9.0017   -1.6175   -3.3928 C   0  0  1  0  0  0  0  0  0  0  0  0
    8.0561   -2.5683   -3.9157 O   0  0  0  0  0  0  0  0  0  0  0  0
    5.5163   -0.4210   -4.0973 C   0  0  1  0  0  0  0  0  0  0  0  0
    6.2585   -1.0440   -5.1626 O   0  0  0  0  0  0  0  0  0  0  0  0
    4.0612   -0.9284   -4.2213 C   0  0  2  0  0  0  0  0  0  0  0  0
    3.4475   -0.3650   -5.4027 O   0  0  0  0  0  0  0  0  0  0  0  0
    3.1645   -0.6176   -3.0052 C   0  0  2  0  0  0  0  0  0  0  0  0
    1.8820   -0.1320   -3.4329 O   0  0  0  0  0  0  0  0  0  0  0  0
    4.5043    4.8304   -2.2885 H   0  0  0  0  0  0  0  0  0  0  0  0
    3.4363    4.0481   -3.4432 H   0  0  0  0  0  0  0  0  0  0  0  0
    4.5773    3.6799   -5.9258 H   0  0  0  0  0  0  0  0  0  0  0  0
    6.9305    3.7125   -6.7811 H   0  0  0  0  0  0  0  0  0  0  0  0
    9.5566    3.9297   -5.8062 H   0  0  0  0  0  0  0  0  0  0  0  0
   10.8061    4.2617   -3.6840 H   0  0  0  0  0  0  0  0  0  0  0  0
    9.5991    4.4586   -1.5334 H   0  0  0  0  0  0  0  0  0  0  0  0
    7.1367    4.2523   -1.4444 H   0  0  0  0  0  0  0  0  0  0  0  0
    3.1424    0.5610   -1.2076 H   0  0  0  0  0  0  0  0  0  0  0  0
    5.6666    0.5019   -0.9108 H   0  0  0  0  0  0  0  0  0  0  0  0
    5.6739   -1.5435   -0.2010 H   0  0  0  0  0  0  0  0  0  0  0  0
    6.3021   -1.7505   -2.5752 H   0  0  0  0  0  0  0  0  0  0  0  0
    8.1922    0.1920   -4.3058 H   0  0  0  0  0  0  0  0  0  0  0  0
    9.1230    0.4891   -0.8364 H   0  0  0  0  0  0  0  0  0  0  0  0
   11.3022    1.2620   -0.0450 H   0  0  0  0  0  0  0  0  0  0  0  0
   10.6838    2.3976   -1.2623 H   0  0  0  0  0  0  0  0  0  0  0  0
   12.6764    2.0898   -1.8955 H   0  0  0  0  0  0  0  0  0  0  0  0
   10.7331   -1.3524   -0.3983 H   0  0  0  0  0  0  0  0  0  0  0  0
   12.1636   -0.4478   -2.2342 H   0  0  0  0  0  0  0  0  0  0  0  0
    8.5875   -2.1478   -1.3271 H   0  0  0  0  0  0  0  0  0  0  0  0
   10.9699   -3.2186   -2.3056 H   0  0  0  0  0  0  0  0  0  0  0  0
    9.8598   -1.6401   -4.0765 H   0  0  0  0  0  0  0  0  0  0  0  0
    8.4701   -3.4386   -3.7248 H   0  0  0  0  0  0  0  0  0  0  0  0
    5.5732    0.6454   -4.3346 H   0  0  0  0  0  0  0  0  0  0  0  0
    6.7413   -1.8197   -4.7978 H   0  0  0  0  0  0  0  0  0  0  0  0
    4.0675   -2.0140   -4.3832 H   0  0  0  0  0  0  0  0  0  0  0  0
    4.1804   -0.1672   -6.0186 H   0  0  0  0  0  0  0  0  0  0  0  0
    2.9684   -1.5514   -2.4651 H   0  0  0  0  0  0  0  0  0  0  0  0
    1.9412   -0.1001   -4.4130 H   0  0  0  0  0  0  0  0  0  0  0  0
  1  2  2  0  0  0  0
  2  3  1  0  0  0  0
  2 13  1  0  0  0  0
  3  4  1  0  0  0  0
  3 36  1  0  0  0  0
  3 37  1  0  0  0  0
  4  5  2  0  0  0  0
  4 12  1  0  0  0  0
  5  6  1  0  0  0  0
  5 38  1  0  0  0  0
  6  7  1  0  0  0  0
  6 39  1  0  0  0  0
  7  8  1  0  0  0  0
  7 12  2  0  0  0  0
  8  9  2  0  0  0  0
  8 40  1  0  0  0  0
  9 10  1  0  0  0  0
  9 41  1  0  0  0  0
 10 11  2  0  0  0  0
 10 42  1  0  0  0  0
 11 12  1  0  0  0  0
 11 43  1  0  0  0  0
 13 14  1  0  0  0  0
 14 15  1  0  0  0  0
 14 34  1  0  0  0  0
 14 44  1  1  0  0  0
 15 16  1  0  0  0  0
 15 17  1  0  0  0  0
 15 45  1  1  0  0  0
 16 46  1  0  0  0  0
 17 30  1  0  0  0  0
 17 18  1  0  0  0  0
 17 47  1  1  0  0  0
 18 19  1  0  0  0  0
 19 20  1  0  0  0  0
 19 28  1  0  0  0  0
 19 48  1  0  0  0  0
 20 21  1  0  0  0  0
 21 22  1  0  0  0  0
 21 24  1  0  0  0  0
 21 49  1  1  0  0  0
 22 23  1  0  0  0  0
 22 50  1  0  0  0  0
 22 51  1  0  0  0  0
 23 52  1  0  0  0  0
 24 25  1  0  0  0  0
 24 26  1  0  0  0  0
 24 53  1  1  0  0  0
 25 54  1  0  0  0  0
 26 27  1  0  0  0  0
 26 28  1  0  0  0  0
 26 55  1  1  0  0  0
 27 56  1  0  0  0  0
 28 29  1  0  0  0  0
 28 57  1  6  0  0  0
 29 58  1  0  0  0  0
 30 31  1  0  0  0  0
 30 32  1  0  0  0  0
 30 59  1  6  0  0  0
 31 60  1  0  0  0  0
 32 34  1  0  0  0  0
 32 33  1  0  0  0  0
 32 61  1  6  0  0  0
 33 62  1  0  0  0  0
 34 35  1  0  0  0  0
 34 63  1  1  0  0  0
 35 64  1  0  0  0  0
M  END
$$$$
