CHEBI:18077
 OpenBabel04242423303D

 46 47  0  0  1  0  0  0  0  0999 V2000
    0.2805    1.5012   -2.1859 C   0  0  0  0  0  0  0  0  0  0  0  0
    1.5757    0.7693   -2.3092 C   0  0  0  0  0  0  0  0  0  0  0  0
    2.7394    1.1936   -1.8011 C   0  0  0  0  0  0  0  0  0  0  0  0
    3.9161    0.4834   -1.9440 N   0  0  0  0  0  0  0  0  0  0  0  0
    5.1778    0.9909   -1.4197 C   0  0  1  0  0  0  0  0  0  0  0  0
    5.9097    1.8978   -2.3960 C   0  0  0  0  0  0  0  0  0  0  0  0
    6.8587    2.6219   -1.4709 C   0  0  2  0  0  0  0  0  0  0  0  0
    8.0114    1.7957   -1.2864 O   0  0  0  0  0  0  0  0  0  0  0  0
    6.0602    2.7325   -0.1633 C   0  0  1  0  0  0  0  0  0  0  0  0
    5.4933    4.1296    0.0722 C   0  0  0  0  0  0  0  0  0  0  0  0
    6.5573    5.0490    0.2467 O   0  0  0  0  0  0  0  0  0  0  0  0
    6.1793    6.5909    0.4594 P   0  0  0  0  0  0  0  0  0  0  0  0
    4.7415    6.9661    0.3095 O   0  0  0  0  0  0  0  0  0  0  0  0
    6.7551    6.8959    1.9212 O   0  0  0  0  0  0  0  0  0  0  0  0
    7.1711    7.3866   -0.4924 O   0  0  0  0  0  0  0  0  0  0  0  0
    6.8420    7.4514   -2.0517 P   0  0  0  0  0  0  0  0  0  0  0  0
    6.4026    6.1520   -2.6386 O   0  0  0  0  0  0  0  0  0  0  0  0
    5.7378    8.6061   -2.1268 O   0  0  0  0  0  0  0  0  0  0  0  0
    8.1460    8.0966   -2.6816 O   0  0  0  0  0  0  0  0  0  0  0  0
    8.2773    8.5499   -4.1890 P   0  0  0  0  0  0  0  0  0  0  0  0
    7.4266    7.8869   -5.2118 O   0  0  0  0  0  0  0  0  0  0  0  0
    8.1683   10.1412   -4.1773 O   0  0  0  0  0  0  0  0  0  0  0  0
    9.8377    8.3641   -4.4891 O   0  0  0  0  0  0  0  0  0  0  0  0
    4.9658    1.7936   -0.2427 O   0  0  0  0  0  0  0  0  0  0  0  0
    3.9668   -0.6996   -2.6687 C   0  0  0  0  0  0  0  0  0  0  0  0
    4.9947   -1.3377   -2.8849 O   0  0  0  0  0  0  0  0  0  0  0  0
    2.7704   -1.1442   -3.1631 N   0  0  0  0  0  0  0  0  0  0  0  0
    1.5664   -0.5134   -3.0504 C   0  0  0  0  0  0  0  0  0  0  0  0
    0.5411   -0.9732   -3.5405 O   0  0  0  0  0  0  0  0  0  0  0  0
    0.3950    2.4397   -1.6333 H   0  0  0  0  0  0  0  0  0  0  0  0
   -0.4573    0.8902   -1.6558 H   0  0  0  0  0  0  0  0  0  0  0  0
   -0.1175    1.7459   -3.1763 H   0  0  0  0  0  0  0  0  0  0  0  0
    2.7970    2.1272   -1.2485 H   0  0  0  0  0  0  0  0  0  0  0  0
    5.8139    0.1470   -1.1227 H   0  0  0  0  0  0  0  0  0  0  0  0
    5.2162    2.6158   -2.8502 H   0  0  0  0  0  0  0  0  0  0  0  0
    6.4023    1.3316   -3.1920 H   0  0  0  0  0  0  0  0  0  0  0  0
    7.2004    3.5767   -1.8789 H   0  0  0  0  0  0  0  0  0  0  0  0
    8.6409    2.2925   -0.7338 H   0  0  0  0  0  0  0  0  0  0  0  0
    6.6865    2.4468    0.6902 H   0  0  0  0  0  0  0  0  0  0  0  0
    4.8618    4.1319    0.9677 H   0  0  0  0  0  0  0  0  0  0  0  0
    4.8654    4.4371   -0.7720 H   0  0  0  0  0  0  0  0  0  0  0  0
    6.3879    7.7168    2.2963 H   0  0  0  0  0  0  0  0  0  0  0  0
    4.8413    8.2810   -1.9043 H   0  0  0  0  0  0  0  0  0  0  0  0
    8.2219   10.5041   -5.0794 H   0  0  0  0  0  0  0  0  0  0  0  0
   10.0342    7.4614   -4.8008 H   0  0  0  0  0  0  0  0  0  0  0  0
    2.7897   -2.0079   -3.6812 H   0  0  0  0  0  0  0  0  0  0  0  0
  1  2  1  0  0  0  0
  1 30  1  0  0  0  0
  1 31  1  0  0  0  0
  1 32  1  0  0  0  0
  2  3  2  0  0  0  0
  2 28  1  0  0  0  0
  3  4  1  0  0  0  0
  3 33  1  0  0  0  0
  4  5  1  0  0  0  0
  4 25  1  0  0  0  0
  5  6  1  0  0  0  0
  5 24  1  0  0  0  0
  5 34  1  1  0  0  0
  6  7  1  0  0  0  0
  6 35  1  0  0  0  0
  6 36  1  0  0  0  0
  7  8  1  0  0  0  0
  7  9  1  0  0  0  0
  7 37  1  6  0  0  0
  8 38  1  0  0  0  0
  9 10  1  0  0  0  0
  9 24  1  0  0  0  0
  9 39  1  1  0  0  0
 10 11  1  0  0  0  0
 10 40  1  0  0  0  0
 10 41  1  0  0  0  0
 11 12  1  0  0  0  0
 12 13  2  0  0  0  0
 12 14  1  0  0  0  0
 12 15  1  0  0  0  0
 14 42  1  0  0  0  0
 15 16  1  0  0  0  0
 16 17  2  0  0  0  0
 16 18  1  0  0  0  0
 16 19  1  0  0  0  0
 18 43  1  0  0  0  0
 19 20  1  0  0  0  0
 20 21  2  0  0  0  0
 20 22  1  0  0  0  0
 20 23  1  0  0  0  0
 22 44  1  0  0  0  0
 23 45  1  0  0  0  0
 25 26  2  0  0  0  0
 25 27  1  0  0  0  0
 27 28  1  0  0  0  0
 27 46  1  0  0  0  0
 28 29  2  0  0  0  0
M  END
$$$$
