CHEBI:7476
 OpenBabel04242411093D

 31 32  0  0  1  0  0  0  0  0999 V2000
    7.5873   -1.0565  -10.0338 C   0  0  0  0  0  0  0  0  0  0  0  0
    8.3724   -2.1071   -9.4836 O   0  0  0  0  0  0  0  0  0  0  0  0
    8.0455   -2.5289   -8.2241 C   0  0  0  0  0  0  0  0  0  0  0  0
    7.0585   -1.9825   -7.4075 C   0  0  0  0  0  0  0  0  0  0  0  0
    6.8231   -2.5181   -6.1364 C   0  0  0  0  0  0  0  0  0  0  0  0
    7.5691   -3.6082   -5.6628 C   0  0  0  0  0  0  0  0  0  0  0  0
    7.3340   -4.1632   -4.3934 C   0  0  0  0  0  0  0  0  0  0  0  0
    8.0791   -5.2596   -3.9273 C   0  0  0  0  0  0  0  0  0  0  0  0
    7.8125   -5.8666   -2.5585 C   0  0  2  0  0  0  0  0  0  0  0  0
    6.4546   -6.5733   -2.5440 C   0  0  0  0  0  0  0  0  0  0  0  0
    7.9186   -4.8545   -1.4189 C   0  0  0  0  0  0  0  0  0  0  0  0
    7.1246   -4.7654   -0.4933 O   0  0  0  0  0  0  0  0  0  0  0  0
    9.0282   -4.0774   -1.4731 O   0  0  0  0  0  0  0  0  0  0  0  0
    9.0728   -5.7991   -4.7528 C   0  0  0  0  0  0  0  0  0  0  0  0
    9.3186   -5.2531   -6.0149 C   0  0  0  0  0  0  0  0  0  0  0  0
    8.5736   -4.1608   -6.4842 C   0  0  0  0  0  0  0  0  0  0  0  0
    8.7994   -3.6095   -7.7564 C   0  0  0  0  0  0  0  0  0  0  0  0
    7.9497   -0.8645  -11.0483 H   0  0  0  0  0  0  0  0  0  0  0  0
    7.7060   -0.1333   -9.4572 H   0  0  0  0  0  0  0  0  0  0  0  0
    6.5335   -1.3456  -10.1062 H   0  0  0  0  0  0  0  0  0  0  0  0
    6.4524   -1.1409   -7.7254 H   0  0  0  0  0  0  0  0  0  0  0  0
    6.0446   -2.0754   -5.5182 H   0  0  0  0  0  0  0  0  0  0  0  0
    6.5529   -3.7363   -3.7640 H   0  0  0  0  0  0  0  0  0  0  0  0
    8.5780   -6.6247   -2.3441 H   0  0  0  0  0  0  0  0  0  0  0  0
    5.6269   -5.8672   -2.6764 H   0  0  0  0  0  0  0  0  0  0  0  0
    6.2943   -7.0876   -1.5899 H   0  0  0  0  0  0  0  0  0  0  0  0
    6.3901   -7.3206   -3.3427 H   0  0  0  0  0  0  0  0  0  0  0  0
    9.5717   -4.2204   -2.2729 H   0  0  0  0  0  0  0  0  0  0  0  0
    9.6596   -6.6578   -4.4317 H   0  0  0  0  0  0  0  0  0  0  0  0
   10.0929   -5.6952   -6.6391 H   0  0  0  0  0  0  0  0  0  0  0  0
    9.5683   -4.0265   -8.4037 H   0  0  0  0  0  0  0  0  0  0  0  0
  1  2  1  0  0  0  0
  1 18  1  0  0  0  0
  1 19  1  0  0  0  0
  1 20  1  0  0  0  0
  2  3  1  0  0  0  0
  3  4  1  0  0  0  0
  3 17  2  0  0  0  0
  4  5  2  0  0  0  0
  4 21  1  0  0  0  0
  5  6  1  0  0  0  0
  5 22  1  0  0  0  0
  6  7  1  0  0  0  0
  6 16  2  0  0  0  0
  7  8  2  0  0  0  0
  7 23  1  0  0  0  0
  8 14  1  0  0  0  0
  9 11  1  0  0  0  0
  9 10  1  0  0  0  0
  9  8  1  0  0  0  0
  9 24  1  1  0  0  0
 10 25  1  0  0  0  0
 10 26  1  0  0  0  0
 10 27  1  0  0  0  0
 11 12  2  0  0  0  0
 11 13  1  0  0  0  0
 13 28  1  0  0  0  0
 14 15  2  0  0  0  0
 14 29  1  0  0  0  0
 15 16  1  0  0  0  0
 15 30  1  0  0  0  0
 16 17  1  0  0  0  0
 17 31  1  0  0  0  0
M  END
$$$$
