CHEBI:17703
 OpenBabel04242417083D

 75 78  0  0  1  0  0  0  0  0999 V2000
   10.6845    1.5035   -2.3549 C   0  0  0  0  0  0  0  0  0  0  0  0
   10.1512    1.9537   -0.9894 C   0  0  0  0  0  0  0  0  0  0  0  0
   11.0703    3.0189   -0.3747 C   0  0  0  0  0  0  0  0  0  0  0  0
   12.3972    2.5251   -0.2331 O   0  0  0  0  0  0  0  0  0  0  0  0
    8.6980    2.4463   -1.1397 C   0  0  0  0  0  0  0  0  0  0  0  0
    8.0317    2.7778    0.1991 C   0  0  0  0  0  0  0  0  0  0  0  0
    6.5502    3.1368    0.0212 C   0  0  0  0  0  0  0  0  0  0  0  0
    5.8073    3.4932    1.3380 C   0  0  1  0  0  0  0  0  0  0  0  0
    5.8618    2.3006    2.2982 C   0  0  0  0  0  0  0  0  0  0  0  0
    6.3169    4.8223    1.9646 C   0  0  1  0  0  0  0  0  0  0  0  0
    6.1094    6.0303    1.0046 C   0  0  0  0  0  0  0  0  0  0  0  0
    5.8630    7.2688    1.8777 C   0  0  0  0  0  0  0  0  0  0  0  0
    6.1836    6.7947    3.2871 C   0  0  1  0  0  0  0  0  0  0  0  0
    5.6482    7.6202    4.4621 C   0  0  2  0  0  0  0  0  0  0  0  0
    6.1551    9.0699    4.4096 C   0  0  0  0  0  0  0  0  0  0  0  0
    5.8992    9.8245    5.6785 C   0  0  0  0  0  0  0  0  0  0  0  0
    5.5570    9.2562    6.8505 C   0  0  0  0  0  0  0  0  0  0  0  0
    5.2769   10.1174    8.0637 C   0  0  0  0  0  0  0  0  0  0  0  0
    6.0377    9.6468    9.3057 C   0  0  1  0  0  0  0  0  0  0  0  0
    5.5973   10.3754   10.4511 O   0  0  0  0  0  0  0  0  0  0  0  0
    5.8438    8.1540    9.5579 C   0  0  0  0  0  0  0  0  0  0  0  0
    6.2080    7.3271    8.3256 C   0  0  0  0  0  0  0  0  0  0  0  0
    5.4371    7.7360    7.0365 C   0  0  1  0  0  0  0  0  0  0  0  0
    3.9372    7.3866    7.2017 C   0  0  0  0  0  0  0  0  0  0  0  0
    6.0717    6.9675    5.8086 C   0  0  1  0  0  0  0  0  0  0  0  0
    5.8446    5.4339    5.8442 C   0  0  0  0  0  0  0  0  0  0  0  0
    6.2943    4.6959    4.5746 C   0  0  0  0  0  0  0  0  0  0  0  0
    5.6973    5.3242    3.3034 C   0  0  2  0  0  0  0  0  0  0  0  0
    4.1553    5.1881    3.2938 C   0  0  0  0  0  0  0  0  0  0  0  0
   11.6946    1.0897   -2.2709 H   0  0  0  0  0  0  0  0  0  0  0  0
   10.7173    2.3399   -3.0612 H   0  0  0  0  0  0  0  0  0  0  0  0
   10.0458    0.7234   -2.7827 H   0  0  0  0  0  0  0  0  0  0  0  0
   10.1609    1.0708   -0.3365 H   0  0  0  0  0  0  0  0  0  0  0  0
   10.7313    3.3206    0.6202 H   0  0  0  0  0  0  0  0  0  0  0  0
   11.1085    3.9140   -1.0042 H   0  0  0  0  0  0  0  0  0  0  0  0
   12.3577    1.7468    0.3487 H   0  0  0  0  0  0  0  0  0  0  0  0
    8.1102    1.6668   -1.6415 H   0  0  0  0  0  0  0  0  0  0  0  0
    8.6702    3.3300   -1.7896 H   0  0  0  0  0  0  0  0  0  0  0  0
    8.5543    3.6160    0.6667 H   0  0  0  0  0  0  0  0  0  0  0  0
    8.1311    1.9135    0.8647 H   0  0  0  0  0  0  0  0  0  0  0  0
    6.0363    2.2859   -0.4456 H   0  0  0  0  0  0  0  0  0  0  0  0
    6.4602    3.9646   -0.6918 H   0  0  0  0  0  0  0  0  0  0  0  0
    4.7533    3.6308    1.0608 H   0  0  0  0  0  0  0  0  0  0  0  0
    6.8420    2.2096    2.7761 H   0  0  0  0  0  0  0  0  0  0  0  0
    5.6521    1.3643    1.7690 H   0  0  0  0  0  0  0  0  0  0  0  0
    5.1079    2.3820    3.0841 H   0  0  0  0  0  0  0  0  0  0  0  0
    7.3980    4.7237    2.1320 H   0  0  0  0  0  0  0  0  0  0  0  0
    5.2543    5.8822    0.3352 H   0  0  0  0  0  0  0  0  0  0  0  0
    6.9965    6.1705    0.3767 H   0  0  0  0  0  0  0  0  0  0  0  0
    4.8205    7.5957    1.7915 H   0  0  0  0  0  0  0  0  0  0  0  0
    6.4967    8.1065    1.5692 H   0  0  0  0  0  0  0  0  0  0  0  0
    7.2836    6.7982    3.3691 H   0  0  0  0  0  0  0  0  0  0  0  0
    4.5551    7.6587    4.3998 H   0  0  0  0  0  0  0  0  0  0  0  0
    5.6595    9.5951    3.5843 H   0  0  0  0  0  0  0  0  0  0  0  0
    7.2325    9.0984    4.2052 H   0  0  0  0  0  0  0  0  0  0  0  0
    5.9935   10.9064    5.6082 H   0  0  0  0  0  0  0  0  0  0  0  0
    4.1983   10.1186    8.2666 H   0  0  0  0  0  0  0  0  0  0  0  0
    5.5271   11.1698    7.8776 H   0  0  0  0  0  0  0  0  0  0  0  0
    7.1062    9.8582    9.1801 H   0  0  0  0  0  0  0  0  0  0  0  0
    4.6547   10.1775   10.5869 H   0  0  0  0  0  0  0  0  0  0  0  0
    4.8108    7.9503    9.8657 H   0  0  0  0  0  0  0  0  0  0  0  0
    6.4638    7.8445   10.4085 H   0  0  0  0  0  0  0  0  0  0  0  0
    6.0303    6.2705    8.5582 H   0  0  0  0  0  0  0  0  0  0  0  0
    7.2887    7.4288    8.1558 H   0  0  0  0  0  0  0  0  0  0  0  0
    3.4454    7.9990    7.9643 H   0  0  0  0  0  0  0  0  0  0  0  0
    3.7967    6.3469    7.5147 H   0  0  0  0  0  0  0  0  0  0  0  0
    3.3789    7.5362    6.2722 H   0  0  0  0  0  0  0  0  0  0  0  0
    7.1644    7.0989    5.8742 H   0  0  0  0  0  0  0  0  0  0  0  0
    4.7900    5.1999    6.0107 H   0  0  0  0  0  0  0  0  0  0  0  0
    6.3888    5.0047    6.6937 H   0  0  0  0  0  0  0  0  0  0  0  0
    6.0127    3.6437    4.6703 H   0  0  0  0  0  0  0  0  0  0  0  0
    7.3911    4.7164    4.5259 H   0  0  0  0  0  0  0  0  0  0  0  0
    3.8479    4.1419    3.3752 H   0  0  0  0  0  0  0  0  0  0  0  0
    3.7099    5.5842    2.3758 H   0  0  0  0  0  0  0  0  0  0  0  0
    3.6780    5.7103    4.1270 H   0  0  0  0  0  0  0  0  0  0  0  0
  1  2  1  0  0  0  0
  1 30  1  0  0  0  0
  1 31  1  0  0  0  0
  1 32  1  0  0  0  0
  2  3  1  0  0  0  0
  2  5  1  0  0  0  0
  2 33  1  0  0  0  0
  3  4  1  0  0  0  0
  3 34  1  0  0  0  0
  3 35  1  0  0  0  0
  4 36  1  0  0  0  0
  5  6  1  0  0  0  0
  5 37  1  0  0  0  0
  5 38  1  0  0  0  0
  6  7  1  0  0  0  0
  6 39  1  0  0  0  0
  6 40  1  0  0  0  0
  7  8  1  0  0  0  0
  7 41  1  0  0  0  0
  7 42  1  0  0  0  0
  8  9  1  0  0  0  0
  8 10  1  0  0  0  0
  8 43  1  6  0  0  0
  9 44  1  0  0  0  0
  9 45  1  0  0  0  0
  9 46  1  0  0  0  0
 10 11  1  0  0  0  0
 10 28  1  0  0  0  0
 10 47  1  1  0  0  0
 11 12  1  0  0  0  0
 11 48  1  0  0  0  0
 11 49  1  0  0  0  0
 12 13  1  0  0  0  0
 12 50  1  0  0  0  0
 12 51  1  0  0  0  0
 13 14  1  0  0  0  0
 13 28  1  0  0  0  0
 13 52  1  1  0  0  0
 14 15  1  0  0  0  0
 14 25  1  0  0  0  0
 14 53  1  6  0  0  0
 15 16  1  0  0  0  0
 15 54  1  0  0  0  0
 15 55  1  0  0  0  0
 16 17  2  0  0  0  0
 16 56  1  0  0  0  0
 17 18  1  0  0  0  0
 17 23  1  0  0  0  0
 18 19  1  0  0  0  0
 18 57  1  0  0  0  0
 18 58  1  0  0  0  0
 19 20  1  0  0  0  0
 19 21  1  0  0  0  0
 19 59  1  6  0  0  0
 20 60  1  0  0  0  0
 21 22  1  0  0  0  0
 21 61  1  0  0  0  0
 21 62  1  0  0  0  0
 22 23  1  0  0  0  0
 22 63  1  0  0  0  0
 22 64  1  0  0  0  0
 23 24  1  1  0  0  0
 23 25  1  0  0  0  0
 24 65  1  0  0  0  0
 24 66  1  0  0  0  0
 24 67  1  0  0  0  0
 25 26  1  0  0  0  0
 25 68  1  1  0  0  0
 26 27  1  0  0  0  0
 26 69  1  0  0  0  0
 26 70  1  0  0  0  0
 27 28  1  0  0  0  0
 27 71  1  0  0  0  0
 27 72  1  0  0  0  0
 28 29  1  6  0  0  0
 29 73  1  0  0  0  0
 29 74  1  0  0  0  0
 29 75  1  0  0  0  0
M  END
$$$$
