CHEBI:15920
 OpenBabel04242413293D

 45 48  0  0  0  0  0  0  0  0999 V2000
    0.7435    0.2715    1.5881 C   0  0  0  0  0  0  0  0  0  0  0  0
    2.0287    0.1640    0.9883 O   0  0  0  0  0  0  0  0  0  0  0  0
    2.5084    1.2490    0.3107 C   0  0  0  0  0  0  0  0  0  0  0  0
    3.5516    0.9325   -0.5629 C   0  0  0  0  0  0  0  0  0  0  0  0
    4.1520    1.9162   -1.3600 C   0  0  0  0  0  0  0  0  0  0  0  0
    3.7570    3.2634   -1.2660 C   0  0  0  0  0  0  0  0  0  0  0  0
    2.7144    3.5723   -0.3712 C   0  0  0  0  0  0  0  0  0  0  0  0
    2.1001    2.5797    0.4078 C   0  0  0  0  0  0  0  0  0  0  0  0
    1.1067    2.9469    1.2703 O   0  0  0  0  0  0  0  0  0  0  0  0
    4.4314    4.2848   -2.0918 C   0  0  0  0  0  0  0  0  0  0  0  0
    4.4662    5.6520   -1.7873 C   0  0  0  0  0  0  0  0  0  0  0  0
    5.1127    6.5574   -2.6334 C   0  0  0  0  0  0  0  0  0  0  0  0
    5.1517    7.9223   -2.3367 C   0  0  0  0  0  0  0  0  0  0  0  0
    5.7955    8.8191   -3.1917 C   0  0  0  0  0  0  0  0  0  0  0  0
    6.4066    8.3795   -4.3713 C   0  0  0  0  0  0  0  0  0  0  0  0
    7.0770    9.2213   -5.2143 O   0  0  0  0  0  0  0  0  0  0  0  0
    6.9480   10.6254   -5.0165 C   0  0  0  0  0  0  0  0  0  0  0  0
    6.3695    7.0061   -4.6851 C   0  0  0  0  0  0  0  0  0  0  0  0
    6.9235    6.3995   -5.7911 O   0  0  0  0  0  0  0  0  0  0  0  0
    7.2576    7.1981   -6.9219 C   0  0  0  0  0  0  0  0  0  0  0  0
    5.7333    6.0898   -3.8022 C   0  0  0  0  0  0  0  0  0  0  0  0
    5.6921    4.7124   -4.0461 C   0  0  0  0  0  0  0  0  0  0  0  0
    5.0775    3.8442   -3.2082 N   0  3  0  0  0  0  0  0  0  0  0  0
    5.0826    2.4013   -3.5716 C   0  0  0  0  0  0  0  0  0  0  0  0
    5.2440    1.5503   -2.3242 C   0  0  0  0  0  0  0  0  0  0  0  0
    0.4228   -0.7386    1.8619 H   0  0  0  0  0  0  0  0  0  0  0  0
    0.0010    0.6690    0.8879 H   0  0  0  0  0  0  0  0  0  0  0  0
    0.7907    0.8582    2.5101 H   0  0  0  0  0  0  0  0  0  0  0  0
    3.8779   -0.1056   -0.6259 H   0  0  0  0  0  0  0  0  0  0  0  0
    2.3539    4.5938   -0.2793 H   0  0  0  0  0  0  0  0  0  0  0  0
    1.0046    3.9115    1.2979 H   0  0  0  0  0  0  0  0  0  0  0  0
    3.9987    6.0213   -0.8765 H   0  0  0  0  0  0  0  0  0  0  0  0
    4.6898    8.3138   -1.4305 H   0  0  0  0  0  0  0  0  0  0  0  0
    5.8122    9.8648   -2.8962 H   0  0  0  0  0  0  0  0  0  0  0  0
    5.8970   10.9331   -5.0255 H   0  0  0  0  0  0  0  0  0  0  0  0
    7.4480   11.1265   -5.8507 H   0  0  0  0  0  0  0  0  0  0  0  0
    7.4464   10.9371   -4.0932 H   0  0  0  0  0  0  0  0  0  0  0  0
    6.4381    7.8661   -7.2062 H   0  0  0  0  0  0  0  0  0  0  0  0
    7.4261    6.5184   -7.7633 H   0  0  0  0  0  0  0  0  0  0  0  0
    8.1936    7.7381   -6.7526 H   0  0  0  0  0  0  0  0  0  0  0  0
    6.1552    4.2845   -4.9324 H   0  0  0  0  0  0  0  0  0  0  0  0
    5.9103    2.2105   -4.2625 H   0  0  0  0  0  0  0  0  0  0  0  0
    4.1338    2.2142   -4.0891 H   0  0  0  0  0  0  0  0  0  0  0  0
    6.2153    1.7323   -1.8496 H   0  0  0  0  0  0  0  0  0  0  0  0
    5.1893    0.4909   -2.5977 H   0  0  0  0  0  0  0  0  0  0  0  0
  1  2  1  0  0  0  0
  1 26  1  0  0  0  0
  1 27  1  0  0  0  0
  1 28  1  0  0  0  0
  2  3  1  0  0  0  0
  3  4  1  0  0  0  0
  3  8  2  0  0  0  0
  4  5  2  0  0  0  0
  4 29  1  0  0  0  0
  5  6  1  0  0  0  0
  5 25  1  0  0  0  0
  6  7  2  0  0  0  0
  6 10  1  0  0  0  0
  7  8  1  0  0  0  0
  7 30  1  0  0  0  0
  8  9  1  0  0  0  0
  9 31  1  0  0  0  0
 10 11  1  0  0  0  0
 10 23  2  0  0  0  0
 11 12  2  0  0  0  0
 11 32  1  0  0  0  0
 12 13  1  0  0  0  0
 12 21  1  0  0  0  0
 13 14  2  0  0  0  0
 13 33  1  0  0  0  0
 14 15  1  0  0  0  0
 14 34  1  0  0  0  0
 15 16  1  0  0  0  0
 15 18  2  0  0  0  0
 16 17  1  0  0  0  0
 17 35  1  0  0  0  0
 17 36  1  0  0  0  0
 17 37  1  0  0  0  0
 18 19  1  0  0  0  0
 18 21  1  0  0  0  0
 19 20  1  0  0  0  0
 20 38  1  0  0  0  0
 20 39  1  0  0  0  0
 20 40  1  0  0  0  0
 21 22  2  0  0  0  0
 22 23  1  0  0  0  0
 22 41  1  0  0  0  0
 23 24  1  0  0  0  0
 24 25  1  0  0  0  0
 24 42  1  0  0  0  0
 24 43  1  0  0  0  0
 25 44  1  0  0  0  0
 25 45  1  0  0  0  0
M  CHG  1  23   1
M  END
$$$$
