CHEBI:17259
 OpenBabel04242416063D

 59 61  0  0  1  0  0  0  0  0999 V2000
   -2.9137    1.5618    1.2066 C   0  0  0  0  0  0  0  0  0  0  0  0
   -2.3014    1.8248   -0.1656 C   0  0  1  0  0  0  0  0  0  0  0  0
   -1.4456    2.9680   -0.0445 O   0  0  0  0  0  0  0  0  0  0  0  0
   -0.8582    3.3447   -1.2929 C   0  0  0  0  0  0  0  0  0  0  0  0
   -0.0816    4.5135   -1.0794 O   0  0  0  0  0  0  0  0  0  0  0  0
    0.4224    5.2793   -2.3860 P   0  0  0  0  0  0  0  0  0  0  0  0
   -0.4569    5.1506   -3.5849 O   0  0  0  0  0  0  0  0  0  0  0  0
    0.5400    6.7984   -1.8886 O   0  0  0  0  0  0  0  0  0  0  0  0
    1.9393    4.8330   -2.5848 O   0  0  0  0  0  0  0  0  0  0  0  0
    3.1265    5.6819   -1.6560 P   0  0  0  0  0  0  0  0  0  0  0  0
    3.3094    4.4271   -0.7952 O   0  0  0  0  0  0  0  0  0  0  0  0
    4.2214    5.4785   -2.8517 O   0  0  0  0  0  0  0  0  0  0  0  0
    4.3137    6.5308   -0.7271 O   0  0  0  0  0  0  0  0  0  0  0  0
    3.8784    6.8665    0.5887 C   0  0  0  0  0  0  0  0  0  0  0  0
    4.9371    7.7357    1.2652 C   0  0  1  0  0  0  0  0  0  0  0  0
    4.4622    8.1748    2.5568 O   0  0  0  0  0  0  0  0  0  0  0  0
    5.3207    7.6031    3.5632 C   0  0  1  0  0  0  0  0  0  0  0  0
    4.5405    7.2250    4.7395 N   0  0  0  0  0  0  0  0  0  0  0  0
    4.8480    7.7868    5.9601 C   0  0  0  0  0  0  0  0  0  0  0  0
    4.1935    7.4401    7.0668 C   0  0  0  0  0  0  0  0  0  0  0  0
    3.1371    6.4268    6.8952 C   0  0  0  0  0  0  0  0  0  0  0  0
    2.4216    6.0021    7.9808 N   0  0  0  0  0  0  0  0  0  0  0  0
    2.8433    5.8933    5.7533 N   0  0  0  0  0  0  0  0  0  0  0  0
    3.5319    6.2644    4.6205 C   0  0  0  0  0  0  0  0  0  0  0  0
    3.2631    5.7448    3.5421 O   0  0  0  0  0  0  0  0  0  0  0  0
    6.1229    6.4688    2.9076 C   0  0  2  0  0  0  0  0  0  0  0  0
    7.4061    6.2779    3.5123 O   0  0  0  0  0  0  0  0  0  0  0  0
    6.2583    6.9946    1.4881 C   0  0  2  0  0  0  0  0  0  0  0  0
    7.3680    7.9192    1.4721 O   0  0  0  0  0  0  0  0  0  0  0  0
    0.0095    2.1969   -1.8635 C   0  0  1  0  0  0  0  0  0  0  0  0
    1.1238    1.9012   -1.0138 O   0  0  0  0  0  0  0  0  0  0  0  0
   -0.8213    0.9263   -1.9968 C   0  0  0  0  0  0  0  0  0  0  0  0
   -1.5270    0.5968   -0.6808 C   0  0  2  0  0  0  0  0  0  0  0  0
   -2.4189   -0.4960   -0.8989 O   0  0  0  0  0  0  0  0  0  0  0  0
   -3.4542    2.4479    1.5573 H   0  0  0  0  0  0  0  0  0  0  0  0
   -2.1347    1.3555    1.9487 H   0  0  0  0  0  0  0  0  0  0  0  0
   -3.6104    0.7186    1.1844 H   0  0  0  0  0  0  0  0  0  0  0  0
   -3.1235    2.0660   -0.8528 H   0  0  0  0  0  0  0  0  0  0  0  0
   -1.6762    3.5860   -1.9831 H   0  0  0  0  0  0  0  0  0  0  0  0
   -0.3266    7.2465   -1.9700 H   0  0  0  0  0  0  0  0  0  0  0  0
    4.6875    4.6407   -2.6621 H   0  0  0  0  0  0  0  0  0  0  0  0
    3.7028    5.9503    1.1560 H   0  0  0  0  0  0  0  0  0  0  0  0
    2.9273    7.4073    0.5292 H   0  0  0  0  0  0  0  0  0  0  0  0
    5.1056    8.6319    0.6566 H   0  0  0  0  0  0  0  0  0  0  0  0
    6.0143    8.4031    3.8553 H   0  0  0  0  0  0  0  0  0  0  0  0
    5.6437    8.5243    5.9932 H   0  0  0  0  0  0  0  0  0  0  0  0
    4.3953    7.8612    8.0400 H   0  0  0  0  0  0  0  0  0  0  0  0
    2.9164    5.9493    8.8621 H   0  0  0  0  0  0  0  0  0  0  0  0
    1.8930    5.1592    7.7735 H   0  0  0  0  0  0  0  0  0  0  0  0
    5.5927    5.5133    2.9138 H   0  0  0  0  0  0  0  0  0  0  0  0
    7.9931    6.9257    3.0681 H   0  0  0  0  0  0  0  0  0  0  0  0
    6.4815    6.2101    0.7597 H   0  0  0  0  0  0  0  0  0  0  0  0
    7.4567    8.2310    0.5517 H   0  0  0  0  0  0  0  0  0  0  0  0
    0.4228    2.4735   -2.8384 H   0  0  0  0  0  0  0  0  0  0  0  0
    1.5189    2.7445   -0.7104 H   0  0  0  0  0  0  0  0  0  0  0  0
   -0.1916    0.0771   -2.2891 H   0  0  0  0  0  0  0  0  0  0  0  0
   -1.5674    1.0463   -2.7932 H   0  0  0  0  0  0  0  0  0  0  0  0
   -0.7847    0.2902    0.0663 H   0  0  0  0  0  0  0  0  0  0  0  0
   -1.8688   -1.2798   -1.0761 H   0  0  0  0  0  0  0  0  0  0  0  0
  1 35  1  0  0  0  0
  1 36  1  0  0  0  0
  1 37  1  0  0  0  0
  2  3  1  0  0  0  0
  2 33  1  0  0  0  0
  2  1  1  0  0  0  0
  2 38  1  6  0  0  0
  3  4  1  0  0  0  0
  4  5  1  0  0  0  0
  4 30  1  0  0  0  0
  4 39  1  0  0  0  0
  5  6  1  0  0  0  0
  6  7  2  0  0  0  0
  6  8  1  0  0  0  0
  6  9  1  0  0  0  0
  8 40  1  0  0  0  0
  9 10  1  0  0  0  0
 10 11  2  0  0  0  0
 10 12  1  0  0  0  0
 10 13  1  0  0  0  0
 12 41  1  0  0  0  0
 13 14  1  0  0  0  0
 14 15  1  0  0  0  0
 14 42  1  0  0  0  0
 14 43  1  0  0  0  0
 15 16  1  0  0  0  0
 15 28  1  0  0  0  0
 15 44  1  6  0  0  0
 16 17  1  0  0  0  0
 17 18  1  0  0  0  0
 17 26  1  0  0  0  0
 17 45  1  1  0  0  0
 18 19  1  0  0  0  0
 18 24  1  0  0  0  0
 19 20  2  0  0  0  0
 19 46  1  0  0  0  0
 20 21  1  0  0  0  0
 20 47  1  0  0  0  0
 21 22  1  0  0  0  0
 21 23  2  0  0  0  0
 22 48  1  0  0  0  0
 22 49  1  0  0  0  0
 23 24  1  0  0  0  0
 24 25  2  0  0  0  0
 26 27  1  0  0  0  0
 26 28  1  0  0  0  0
 26 50  1  1  0  0  0
 27 51  1  0  0  0  0
 28 29  1  0  0  0  0
 28 52  1  6  0  0  0
 29 53  1  0  0  0  0
 30 31  1  0  0  0  0
 30 32  1  0  0  0  0
 30 54  1  6  0  0  0
 31 55  1  0  0  0  0
 32 33  1  0  0  0  0
 32 56  1  0  0  0  0
 32 57  1  0  0  0  0
 33 34  1  0  0  0  0
 33 58  1  1  0  0  0
 34 59  1  0  0  0  0
M  END
$$$$
