CHEBI:9139
 OpenBabel04242411373D

 63 66  0  0  0  0  0  0  0  0999 V2000
   -2.3869    5.6936    0.2013 C   0  0  0  0  0  0  0  0  0  0  0  0
   -1.0208    5.6081    0.8637 C   0  0  0  0  0  0  0  0  0  0  0  0
    0.0229    4.9864   -0.0689 C   0  0  0  0  0  0  0  0  0  0  0  0
    1.3849    4.8356    0.5283 C   0  0  0  0  0  0  0  0  0  0  0  0
    1.6592    5.2105    1.7933 N   0  0  0  0  0  0  0  0  0  0  0  0
    2.9634    4.8880    1.9627 N   0  0  0  0  0  0  0  0  0  0  0  0
    3.6061    5.1330    3.2312 C   0  0  0  0  0  0  0  0  0  0  0  0
    3.5207    4.3278    0.8581 C   0  0  0  0  0  0  0  0  0  0  0  0
    4.8229    3.8261    0.6219 C   0  0  0  0  0  0  0  0  0  0  0  0
    5.7467    3.8126    1.4268 O   0  0  0  0  0  0  0  0  0  0  0  0
    4.9381    3.3223   -0.6515 N   0  0  0  0  0  0  0  0  0  0  0  0
    3.9050    3.2933   -1.5811 C   0  0  0  0  0  0  0  0  0  0  0  0
    4.2310    2.6791   -2.9103 C   0  0  0  0  0  0  0  0  0  0  0  0
    3.4726    3.1058   -4.0108 C   0  0  0  0  0  0  0  0  0  0  0  0
    3.6636    2.5180   -5.2637 C   0  0  0  0  0  0  0  0  0  0  0  0
    2.6807    3.0632   -6.6479 S   0  0  0  0  0  0  0  0  0  0  0  0
    2.3018    4.4351   -6.3904 O   0  0  0  0  0  0  0  0  0  0  0  0
    3.3995    2.7008   -7.8524 O   0  0  0  0  0  0  0  0  0  0  0  0
    1.2891    2.0914   -6.5464 N   0  0  0  0  0  0  0  0  0  0  0  0
    1.4820    0.6437   -6.8520 C   0  0  0  0  0  0  0  0  0  0  0  0
    0.1304   -0.0935   -6.9090 C   0  0  0  0  0  0  0  0  0  0  0  0
   -0.6311    0.0741   -5.6553 N   0  0  0  0  0  0  0  0  0  0  0  0
   -1.8875   -0.6677   -5.7027 C   0  0  0  0  0  0  0  0  0  0  0  0
   -0.8804    1.5145   -5.4402 C   0  0  0  0  0  0  0  0  0  0  0  0
    0.4361    2.3047   -5.3380 C   0  0  0  0  0  0  0  0  0  0  0  0
    4.6310    1.5301   -5.4433 C   0  0  0  0  0  0  0  0  0  0  0  0
    5.4018    1.1139   -4.3557 C   0  0  0  0  0  0  0  0  0  0  0  0
    5.2277    1.6957   -3.0912 C   0  0  0  0  0  0  0  0  0  0  0  0
    5.9675    1.3306   -1.9955 O   0  0  0  0  0  0  0  0  0  0  0  0
    7.2305    0.7046   -2.2366 C   0  0  0  0  0  0  0  0  0  0  0  0
    8.0591    0.8418   -0.9722 C   0  0  0  0  0  0  0  0  0  0  0  0
    2.7070    3.7677   -1.3637 N   0  0  0  0  0  0  0  0  0  0  0  0
    2.5325    4.2931   -0.0798 C   0  0  0  0  0  0  0  0  0  0  0  0
   -3.1071    6.1620    0.8798 H   0  0  0  0  0  0  0  0  0  0  0  0
   -2.7612    4.6972   -0.0543 H   0  0  0  0  0  0  0  0  0  0  0  0
   -2.3438    6.2916   -0.7143 H   0  0  0  0  0  0  0  0  0  0  0  0
   -1.1100    5.0146    1.7820 H   0  0  0  0  0  0  0  0  0  0  0  0
   -0.7051    6.6153    1.1621 H   0  0  0  0  0  0  0  0  0  0  0  0
    0.1061    5.5993   -0.9752 H   0  0  0  0  0  0  0  0  0  0  0  0
   -0.3254    3.9951   -0.3861 H   0  0  0  0  0  0  0  0  0  0  0  0
    2.8809    5.5545    3.9321 H   0  0  0  0  0  0  0  0  0  0  0  0
    4.4236    5.8404    3.0725 H   0  0  0  0  0  0  0  0  0  0  0  0
    3.9833    4.1833    3.6181 H   0  0  0  0  0  0  0  0  0  0  0  0
    5.8236    2.8891   -0.8735 H   0  0  0  0  0  0  0  0  0  0  0  0
    2.7258    3.8894   -3.8876 H   0  0  0  0  0  0  0  0  0  0  0  0
    2.1149    0.1805   -6.0876 H   0  0  0  0  0  0  0  0  0  0  0  0
    1.9721    0.5341   -7.8253 H   0  0  0  0  0  0  0  0  0  0  0  0
    0.3303   -1.1579   -7.0813 H   0  0  0  0  0  0  0  0  0  0  0  0
   -0.4509    0.2751   -7.7649 H   0  0  0  0  0  0  0  0  0  0  0  0
   -1.6941   -1.7376   -5.8376 H   0  0  0  0  0  0  0  0  0  0  0  0
   -2.5427   -0.3286   -6.5124 H   0  0  0  0  0  0  0  0  0  0  0  0
   -2.4261   -0.5642   -4.7541 H   0  0  0  0  0  0  0  0  0  0  0  0
   -1.4354    1.6573   -4.5053 H   0  0  0  0  0  0  0  0  0  0  0  0
   -1.4918    1.9265   -6.2539 H   0  0  0  0  0  0  0  0  0  0  0  0
    0.9715    1.9778   -4.4407 H   0  0  0  0  0  0  0  0  0  0  0  0
    0.1966    3.3684   -5.2369 H   0  0  0  0  0  0  0  0  0  0  0  0
    4.7858    1.0743   -6.4197 H   0  0  0  0  0  0  0  0  0  0  0  0
    6.1240    0.3195   -4.5224 H   0  0  0  0  0  0  0  0  0  0  0  0
    7.7646    1.1957   -3.0584 H   0  0  0  0  0  0  0  0  0  0  0  0
    7.0777   -0.3555   -2.4663 H   0  0  0  0  0  0  0  0  0  0  0  0
    9.0495    0.3982   -1.1047 H   0  0  0  0  0  0  0  0  0  0  0  0
    7.5608    0.3550   -0.1276 H   0  0  0  0  0  0  0  0  0  0  0  0
    8.1779    1.8977   -0.7055 H   0  0  0  0  0  0  0  0  0  0  0  0
  1  2  1  0  0  0  0
  1 34  1  0  0  0  0
  1 35  1  0  0  0  0
  1 36  1  0  0  0  0
  2  3  1  0  0  0  0
  2 37  1  0  0  0  0
  2 38  1  0  0  0  0
  3  4  1  0  0  0  0
  3 39  1  0  0  0  0
  3 40  1  0  0  0  0
  4  5  2  0  0  0  0
  4 33  1  0  0  0  0
  5  6  1  0  0  0  0
  6  7  1  0  0  0  0
  6  8  1  0  0  0  0
  7 41  1  0  0  0  0
  7 42  1  0  0  0  0
  7 43  1  0  0  0  0
  8  9  1  0  0  0  0
  8 33  2  0  0  0  0
  9 10  2  0  0  0  0
  9 11  1  0  0  0  0
 11 12  1  0  0  0  0
 11 44  1  0  0  0  0
 12 13  1  0  0  0  0
 12 32  2  0  0  0  0
 13 14  1  0  0  0  0
 13 28  2  0  0  0  0
 14 15  2  0  0  0  0
 14 45  1  0  0  0  0
 15 16  1  0  0  0  0
 15 26  1  0  0  0  0
 16 17  2  0  0  0  0
 16 18  2  0  0  0  0
 16 19  1  0  0  0  0
 19 20  1  0  0  0  0
 19 25  1  0  0  0  0
 20 21  1  0  0  0  0
 20 46  1  0  0  0  0
 20 47  1  0  0  0  0
 21 22  1  0  0  0  0
 21 48  1  0  0  0  0
 21 49  1  0  0  0  0
 22 23  1  0  0  0  0
 22 24  1  0  0  0  0
 23 50  1  0  0  0  0
 23 51  1  0  0  0  0
 23 52  1  0  0  0  0
 24 25  1  0  0  0  0
 24 53  1  0  0  0  0
 24 54  1  0  0  0  0
 25 55  1  0  0  0  0
 25 56  1  0  0  0  0
 26 27  2  0  0  0  0
 26 57  1  0  0  0  0
 27 28  1  0  0  0  0
 27 58  1  0  0  0  0
 28 29  1  0  0  0  0
 29 30  1  0  0  0  0
 30 31  1  0  0  0  0
 30 59  1  0  0  0  0
 30 60  1  0  0  0  0
 31 61  1  0  0  0  0
 31 62  1  0  0  0  0
 31 63  1  0  0  0  0
 32 33  1  0  0  0  0
M  END
$$$$
