CHEBI:3523
 OpenBabel04242410513D

 66 68  0  0  1  0  0  0  0  0999 V2000
    0.1298    7.3238    8.4569 O   0  0  0  0  0  0  0  0  0  0  0  0
    0.8539    6.7972    7.3513 C   0  0  0  0  0  0  0  0  0  0  0  0
    1.0085    5.2736    7.4443 C   0  0  1  0  0  0  0  0  0  0  0  0
    1.5309    4.7812    6.2038 O   0  0  0  0  0  0  0  0  0  0  0  0
    1.6097    3.3608    6.1775 C   0  0  1  0  0  0  0  0  0  0  0  0
    2.1207    2.9016    4.9216 O   0  0  0  0  0  0  0  0  0  0  0  0
    1.4327    3.4091    3.7509 C   0  0  1  0  0  0  0  0  0  0  0  0
    2.2681    2.9393    2.5482 C   0  0  2  0  0  0  0  0  0  0  0  0
    2.1208    3.8509    1.4444 O   0  0  0  0  0  0  0  0  0  0  0  0
    1.9043    1.5153    2.0927 C   0  0  1  0  0  0  0  0  0  0  0  0
    3.1338    0.8486    1.7459 O   0  0  0  0  0  0  0  0  0  0  0  0
    1.0938    0.7755    3.1770 C   0  0  2  0  0  0  0  0  0  0  0  0
    0.7796   -0.5290    2.6602 O   0  0  0  0  0  0  0  0  0  0  0  0
   -0.0224   -1.3660    3.5357 C   0  0  1  0  0  0  0  0  0  0  0  0
   -0.3648   -2.6123    2.6963 C   0  0  2  0  0  0  0  0  0  0  0  0
   -1.6161   -3.1775    3.1277 O   0  0  0  0  0  0  0  0  0  0  0  0
    0.7360   -3.6907    2.7621 C   0  0  1  0  0  0  0  0  0  0  0  0
    0.8927   -4.2665    1.4532 O   0  0  0  0  0  0  0  0  0  0  0  0
    2.0650   -3.1269    3.2971 C   0  0  0  0  0  0  0  0  0  0  0  0
    2.6751   -2.2657    2.3303 O   0  0  0  0  0  0  0  0  0  0  0  0
    1.9702   -2.4639    4.5499 O   0  0  0  0  0  0  0  0  0  0  0  0
    0.7538   -1.7442    4.8139 C   0  0  2  0  0  0  0  0  0  0  0  0
   -0.0830   -2.4626    5.8925 C   0  0  0  0  0  0  0  0  0  0  0  0
   -0.5800   -3.7330    5.5017 O   0  0  0  0  0  0  0  0  0  0  0  0
   -0.1032    1.4522    3.5367 O   0  0  0  0  0  0  0  0  0  0  0  0
   -0.0139    2.8808    3.6711 C   0  0  2  0  0  0  0  0  0  0  0  0
   -0.8864    3.5697    2.6020 C   0  0  0  0  0  0  0  0  0  0  0  0
   -0.4634    3.3358    1.2673 O   0  0  0  0  0  0  0  0  0  0  0  0
    2.5650    2.8462    7.2735 C   0  0  2  0  0  0  0  0  0  0  0  0
    2.5999    1.4106    7.3095 O   0  0  0  0  0  0  0  0  0  0  0  0
    2.0984    3.3582    8.6352 C   0  0  1  0  0  0  0  0  0  0  0  0
    3.0445    3.0101    9.6563 O   0  0  0  0  0  0  0  0  0  0  0  0
    1.9336    4.8789    8.6077 C   0  0  2  0  0  0  0  0  0  0  0  0
    1.4075    5.3283    9.8607 O   0  0  0  0  0  0  0  0  0  0  0  0
    0.4897    6.8977    9.2646 H   0  0  0  0  0  0  0  0  0  0  0  0
    1.8312    7.2895    7.2995 H   0  0  0  0  0  0  0  0  0  0  0  0
    0.3170    7.0663    6.4353 H   0  0  0  0  0  0  0  0  0  0  0  0
    0.0087    4.8493    7.6110 H   0  0  0  0  0  0  0  0  0  0  0  0
    0.6206    2.9161    6.3342 H   0  0  0  0  0  0  0  0  0  0  0  0
    1.4360    4.5048    3.7842 H   0  0  0  0  0  0  0  0  0  0  0  0
    3.3306    2.9791    2.8223 H   0  0  0  0  0  0  0  0  0  0  0  0
    2.7542    3.5394    0.7653 H   0  0  0  0  0  0  0  0  0  0  0  0
    1.3205    1.5401    1.1659 H   0  0  0  0  0  0  0  0  0  0  0  0
    3.1179   -0.0565    2.1119 H   0  0  0  0  0  0  0  0  0  0  0  0
    1.7322    0.6413    4.0539 H   0  0  0  0  0  0  0  0  0  0  0  0
   -0.9468   -0.8351    3.7917 H   0  0  0  0  0  0  0  0  0  0  0  0
   -0.5221   -2.3060    1.6539 H   0  0  0  0  0  0  0  0  0  0  0  0
   -1.8239   -3.8796    2.4776 H   0  0  0  0  0  0  0  0  0  0  0  0
    0.4137   -4.5116    3.4093 H   0  0  0  0  0  0  0  0  0  0  0  0
    1.7021   -3.8813    1.0629 H   0  0  0  0  0  0  0  0  0  0  0  0
    2.7715   -3.9536    3.4250 H   0  0  0  0  0  0  0  0  0  0  0  0
    1.9602   -1.6892    1.9966 H   0  0  0  0  0  0  0  0  0  0  0  0
    1.0860   -0.8255    5.3067 H   0  0  0  0  0  0  0  0  0  0  0  0
    0.5428   -2.6341    6.7748 H   0  0  0  0  0  0  0  0  0  0  0  0
   -0.9314   -1.8412    6.1987 H   0  0  0  0  0  0  0  0  0  0  0  0
   -1.2994   -3.5841    4.8511 H   0  0  0  0  0  0  0  0  0  0  0  0
   -0.5195    3.0975    4.6169 H   0  0  0  0  0  0  0  0  0  0  0  0
   -1.9092    3.1850    2.6736 H   0  0  0  0  0  0  0  0  0  0  0  0
   -0.9220    4.6514    2.7699 H   0  0  0  0  0  0  0  0  0  0  0  0
    0.3681    3.8369    1.1252 H   0  0  0  0  0  0  0  0  0  0  0  0
    3.5922    3.1802    7.0809 H   0  0  0  0  0  0  0  0  0  0  0  0
    2.9398    1.1327    6.4364 H   0  0  0  0  0  0  0  0  0  0  0  0
    1.1566    2.8772    8.9280 H   0  0  0  0  0  0  0  0  0  0  0  0
    3.2218    2.0553    9.5312 H   0  0  0  0  0  0  0  0  0  0  0  0
    2.9191    5.3463    8.4861 H   0  0  0  0  0  0  0  0  0  0  0  0
    1.9448    4.8683   10.5407 H   0  0  0  0  0  0  0  0  0  0  0  0
  1  2  1  0  0  0  0
  1 35  1  0  0  0  0
  2 36  1  0  0  0  0
  2 37  1  0  0  0  0
  3  4  1  0  0  0  0
  3 33  1  0  0  0  0
  3  2  1  0  0  0  0
  3 38  1  1  0  0  0
  4  5  1  0  0  0  0
  5 29  1  0  0  0  0
  5  6  1  0  0  0  0
  5 39  1  1  0  0  0
  6  7  1  0  0  0  0
  7  8  1  0  0  0  0
  7 26  1  0  0  0  0
  7 40  1  1  0  0  0
  8  9  1  0  0  0  0
  8 10  1  0  0  0  0
  8 41  1  1  0  0  0
  9 42  1  0  0  0  0
 10 11  1  0  0  0  0
 10 12  1  0  0  0  0
 10 43  1  6  0  0  0
 11 44  1  0  0  0  0
 12 25  1  0  0  0  0
 12 13  1  0  0  0  0
 12 45  1  1  0  0  0
 13 14  1  0  0  0  0
 14 15  1  0  0  0  0
 14 22  1  0  0  0  0
 14 46  1  1  0  0  0
 15 16  1  0  0  0  0
 15 17  1  0  0  0  0
 15 47  1  6  0  0  0
 16 48  1  0  0  0  0
 17 18  1  0  0  0  0
 17 19  1  0  0  0  0
 17 49  1  1  0  0  0
 18 50  1  0  0  0  0
 19 20  1  0  0  0  0
 19 21  1  0  0  0  0
 19 51  1  0  0  0  0
 20 52  1  0  0  0  0
 21 22  1  0  0  0  0
 22 23  1  0  0  0  0
 22 53  1  1  0  0  0
 23 24  1  0  0  0  0
 23 54  1  0  0  0  0
 23 55  1  0  0  0  0
 24 56  1  0  0  0  0
 25 26  1  0  0  0  0
 26 27  1  0  0  0  0
 26 57  1  1  0  0  0
 27 28  1  0  0  0  0
 27 58  1  0  0  0  0
 27 59  1  0  0  0  0
 28 60  1  0  0  0  0
 29 30  1  0  0  0  0
 29 31  1  0  0  0  0
 29 61  1  6  0  0  0
 30 62  1  0  0  0  0
 31 32  1  0  0  0  0
 31 33  1  0  0  0  0
 31 63  1  1  0  0  0
 32 64  1  0  0  0  0
 33 34  1  0  0  0  0
 33 65  1  6  0  0  0
 34 66  1  0  0  0  0
M  END
$$$$
