CHEBI:16165
 OpenBabel04242413573D

 22 22  0  0  1  0  0  0  0  0999 V2000
    4.3562    5.3098   -0.2034 O   0  0  0  0  0  0  0  0  0  0  0  0
    3.8401    4.4548   -0.9055 C   0  0  0  0  0  0  0  0  0  0  0  0
    4.5114    3.3995   -1.4557 O   0  0  0  0  0  0  0  0  0  0  0  0
    3.5704    2.5672   -2.1554 C   0  0  2  0  0  0  0  0  0  0  0  0
    3.9291    1.0929   -1.9434 C   0  0  2  0  0  0  0  0  0  0  0  0
    4.0127    0.7916   -0.5375 O   0  0  0  0  0  0  0  0  0  0  0  0
    5.2779    0.7321   -2.5766 C   0  0  0  0  0  0  0  0  0  0  0  0
    5.5362   -0.6590   -2.3877 O   0  0  0  0  0  0  0  0  0  0  0  0
    2.2103    2.9333   -1.5799 C   0  0  2  0  0  0  0  0  0  0  0  0
    1.1665    2.6901   -2.5173 O   0  0  0  0  0  0  0  0  0  0  0  0
    2.3792    4.4136   -1.3037 C   0  0  1  0  0  0  0  0  0  0  0  0
    1.4450    4.8563   -0.3383 O   0  0  0  0  0  0  0  0  0  0  0  0
    3.6236    2.8052   -3.2257 H   0  0  0  0  0  0  0  0  0  0  0  0
    3.1484    0.4450   -2.3573 H   0  0  0  0  0  0  0  0  0  0  0  0
    4.6966    1.3765   -0.1573 H   0  0  0  0  0  0  0  0  0  0  0  0
    6.1002    1.2792   -2.1044 H   0  0  0  0  0  0  0  0  0  0  0  0
    5.2842    0.9388   -3.6506 H   0  0  0  0  0  0  0  0  0  0  0  0
    5.2286   -0.8745   -1.4853 H   0  0  0  0  0  0  0  0  0  0  0  0
    1.9793    2.3866   -0.6579 H   0  0  0  0  0  0  0  0  0  0  0  0
    0.3432    3.0076   -2.0968 H   0  0  0  0  0  0  0  0  0  0  0  0
    2.2432    5.0119   -2.2116 H   0  0  0  0  0  0  0  0  0  0  0  0
    1.7889    5.7012    0.0124 H   0  0  0  0  0  0  0  0  0  0  0  0
  1  2  2  0  0  0  0
  2  3  1  0  0  0  0
  2 11  1  0  0  0  0
  3  4  1  0  0  0  0
  4  9  1  0  0  0  0
  4 13  1  1  0  0  0
  5  7  1  0  0  0  0
  5  6  1  0  0  0  0
  5  4  1  0  0  0  0
  5 14  1  6  0  0  0
  6 15  1  0  0  0  0
  7  8  1  0  0  0  0
  7 16  1  0  0  0  0
  7 17  1  0  0  0  0
  8 18  1  0  0  0  0
  9 10  1  0  0  0  0
  9 11  1  0  0  0  0
  9 19  1  1  0  0  0
 10 20  1  0  0  0  0
 11 12  1  0  0  0  0
 11 21  1  6  0  0  0
 12 22  1  0  0  0  0
M  END
$$$$
