CHEBI:16384
 OpenBabel04242414173D

 43 44  0  0  1  0  0  0  0  0999 V2000
    3.0392    2.1154    2.6952 O   0  0  0  0  0  0  0  0  0  0  0  0
    2.8494    2.8761    1.7589 C   0  0  0  0  0  0  0  0  0  0  0  0
    1.6567    3.7412    1.6830 C   0  0  0  0  0  0  0  0  0  0  0  0
    1.2806    4.4238    0.5904 C   0  0  0  0  0  0  0  0  0  0  0  0
    0.0803    5.2726    0.5441 C   0  0  0  0  0  0  0  0  0  0  0  0
   -0.3027    6.0829    1.6284 C   0  0  0  0  0  0  0  0  0  0  0  0
   -1.4328    6.9058    1.5501 C   0  0  0  0  0  0  0  0  0  0  0  0
   -2.1743    6.9254    0.3774 C   0  0  0  0  0  0  0  0  0  0  0  0
   -3.2865    7.7074    0.2367 O   0  0  0  0  0  0  0  0  0  0  0  0
   -1.7928    6.1391   -0.7057 C   0  0  0  0  0  0  0  0  0  0  0  0
   -2.5242    6.1700   -1.8591 O   0  0  0  0  0  0  0  0  0  0  0  0
   -0.6729    5.3193   -0.6360 C   0  0  0  0  0  0  0  0  0  0  0  0
    3.7126    3.1141    0.7375 O   0  0  0  0  0  0  0  0  0  0  0  0
    4.8845    2.2614    0.7052 C   0  0  2  0  0  0  0  0  0  0  0  0
    5.9846    2.8913    1.5678 C   0  0  0  0  0  0  0  0  0  0  0  0
    6.5034    4.2149    0.9812 C   0  0  1  0  0  0  0  0  0  0  0  0
    5.4979    5.2471    1.0843 O   0  0  0  0  0  0  0  0  0  0  0  0
    7.7086    4.6861    1.8129 C   0  0  0  0  0  0  0  0  0  0  0  0
    8.7451    4.0596    1.9663 O   0  0  0  0  0  0  0  0  0  0  0  0
    7.4874    5.9082    2.3612 O   0  0  0  0  0  0  0  0  0  0  0  0
    6.9231    4.0847   -0.4842 C   0  0  0  0  0  0  0  0  0  0  0  0
    5.8288    3.4533   -1.3396 C   0  0  1  0  0  0  0  0  0  0  0  0
    6.3283    3.2015   -2.6581 O   0  0  0  0  0  0  0  0  0  0  0  0
    5.3632    2.1147   -0.7481 C   0  0  2  0  0  0  0  0  0  0  0  0
    4.3142    1.5855   -1.5656 O   0  0  0  0  0  0  0  0  0  0  0  0
    1.0719    3.7530    2.5969 H   0  0  0  0  0  0  0  0  0  0  0  0
    1.8401    4.3468   -0.3396 H   0  0  0  0  0  0  0  0  0  0  0  0
    0.2809    6.0914    2.5465 H   0  0  0  0  0  0  0  0  0  0  0  0
   -1.7061    7.5175    2.4038 H   0  0  0  0  0  0  0  0  0  0  0  0
   -3.4300    8.1860    1.0714 H   0  0  0  0  0  0  0  0  0  0  0  0
   -3.2504    6.7986   -1.6733 H   0  0  0  0  0  0  0  0  0  0  0  0
   -0.4052    4.7168   -1.4998 H   0  0  0  0  0  0  0  0  0  0  0  0
    4.6181    1.2648    1.0797 H   0  0  0  0  0  0  0  0  0  0  0  0
    6.8103    2.1749    1.6640 H   0  0  0  0  0  0  0  0  0  0  0  0
    5.5971    3.0778    2.5770 H   0  0  0  0  0  0  0  0  0  0  0  0
    4.6240    4.8315    0.9371 H   0  0  0  0  0  0  0  0  0  0  0  0
    6.5850    6.1935    2.0769 H   0  0  0  0  0  0  0  0  0  0  0  0
    7.8404    3.4868   -0.5718 H   0  0  0  0  0  0  0  0  0  0  0  0
    7.1735    5.0695   -0.9006 H   0  0  0  0  0  0  0  0  0  0  0  0
    4.9764    4.1333   -1.4527 H   0  0  0  0  0  0  0  0  0  0  0  0
    6.6211    4.0521   -3.0327 H   0  0  0  0  0  0  0  0  0  0  0  0
    6.1852    1.3888   -0.7906 H   0  0  0  0  0  0  0  0  0  0  0  0
    4.6543    1.6382   -2.4817 H   0  0  0  0  0  0  0  0  0  0  0  0
  1  2  2  0  0  0  0
  2  3  1  0  0  0  0
  2 13  1  0  0  0  0
  3  4  2  0  0  0  0
  3 26  1  0  0  0  0
  4  5  1  0  0  0  0
  4 27  1  0  0  0  0
  5  6  1  0  0  0  0
  5 12  2  0  0  0  0
  6  7  2  0  0  0  0
  6 28  1  0  0  0  0
  7  8  1  0  0  0  0
  7 29  1  0  0  0  0
  8  9  1  0  0  0  0
  8 10  2  0  0  0  0
  9 30  1  0  0  0  0
 10 11  1  0  0  0  0
 10 12  1  0  0  0  0
 11 31  1  0  0  0  0
 12 32  1  0  0  0  0
 13 14  1  0  0  0  0
 14 15  1  0  0  0  0
 14 24  1  0  0  0  0
 14 33  1  1  0  0  0
 15 16  1  0  0  0  0
 15 34  1  0  0  0  0
 15 35  1  0  0  0  0
 16 17  1  1  0  0  0
 16 18  1  0  0  0  0
 16 21  1  0  0  0  0
 17 36  1  0  0  0  0
 18 19  2  0  0  0  0
 18 20  1  0  0  0  0
 20 37  1  0  0  0  0
 21 22  1  0  0  0  0
 21 38  1  0  0  0  0
 21 39  1  0  0  0  0
 22 23  1  0  0  0  0
 22 24  1  0  0  0  0
 22 40  1  6  0  0  0
 23 41  1  0  0  0  0
 24 25  1  0  0  0  0
 24 42  1  6  0  0  0
 25 43  1  0  0  0  0
M  END
$$$$
