CHEBI:15616
 OpenBabel04242412533D

 24 23  0  0  1  0  0  0  0  0999 V2000
    5.5179    1.5832   -2.2299 C   0  0  0  0  0  0  0  0  0  0  0  0
    4.2974    2.2753   -1.6260 C   0  0  2  0  0  0  0  0  0  0  0  0
    4.0688    3.5271   -2.3625 N   0  0  0  0  0  0  0  0  0  0  0  0
    4.4679    2.5842   -0.1239 C   0  0  0  0  0  0  0  0  0  0  0  0
    4.6142    1.3412    0.7834 C   0  0  2  0  0  0  0  0  0  0  0  0
    3.4000    0.5185    0.6776 N   0  0  0  0  0  0  0  0  0  0  0  0
    4.8338    1.7380    2.2539 C   0  0  0  0  0  0  0  0  0  0  0  0
    6.2238    2.2747    2.5110 C   0  0  0  0  0  0  0  0  0  0  0  0
    7.1222    2.3445    1.6894 O   0  0  0  0  0  0  0  0  0  0  0  0
    6.3904    2.6709    3.7953 O   0  0  0  0  0  0  0  0  0  0  0  0
    5.6516    0.5804   -1.8129 H   0  0  0  0  0  0  0  0  0  0  0  0
    6.4357    2.1533   -2.0467 H   0  0  0  0  0  0  0  0  0  0  0  0
    5.4056    1.4659   -3.3141 H   0  0  0  0  0  0  0  0  0  0  0  0
    3.4193    1.6394   -1.7820 H   0  0  0  0  0  0  0  0  0  0  0  0
    4.8655    4.1502   -2.2347 H   0  0  0  0  0  0  0  0  0  0  0  0
    3.2603    4.0090   -1.9736 H   0  0  0  0  0  0  0  0  0  0  0  0
    3.6045    3.1721    0.2191 H   0  0  0  0  0  0  0  0  0  0  0  0
    5.3428    3.2343    0.0045 H   0  0  0  0  0  0  0  0  0  0  0  0
    5.4619    0.7358    0.4451 H   0  0  0  0  0  0  0  0  0  0  0  0
    2.5842    1.0271    1.0154 H   0  0  0  0  0  0  0  0  0  0  0  0
    3.4856   -0.3221    1.2477 H   0  0  0  0  0  0  0  0  0  0  0  0
    4.7131    0.8579    2.8979 H   0  0  0  0  0  0  0  0  0  0  0  0
    4.1021    2.4963    2.5570 H   0  0  0  0  0  0  0  0  0  0  0  0
    5.6030    2.5480    4.3585 H   0  0  0  0  0  0  0  0  0  0  0  0
  1 11  1  0  0  0  0
  1 12  1  0  0  0  0
  1 13  1  0  0  0  0
  2  4  1  0  0  0  0
  2  3  1  0  0  0  0
  2  1  1  0  0  0  0
  2 14  1  6  0  0  0
  3 15  1  0  0  0  0
  3 16  1  0  0  0  0
  4 17  1  0  0  0  0
  4 18  1  0  0  0  0
  5  7  1  0  0  0  0
  5  6  1  0  0  0  0
  5  4  1  0  0  0  0
  5 19  1  6  0  0  0
  6 20  1  0  0  0  0
  6 21  1  0  0  0  0
  7  8  1  0  0  0  0
  7 22  1  0  0  0  0
  7 23  1  0  0  0  0
  8  9  2  0  0  0  0
  8 10  1  0  0  0  0
 10 24  1  0  0  0  0
M  END
$$$$
