CHEBI:16181
 OpenBabel04242413593D

 25 25  0  0  1  0  0  0  0  0999 V2000
    0.9978   -0.0726    0.1061 N   0  0  0  0  0  0  0  0  0  0  0  0
    2.4678   -0.0852   -0.0440 C   0  0  2  0  0  0  0  0  0  0  0  0
    3.0013    0.9834   -1.0388 C   0  0  1  0  0  0  0  0  0  0  0  0
    4.4247    1.0650   -0.8447 O   0  0  0  0  0  0  0  0  0  0  0  0
    2.6596    0.6757   -2.5164 C   0  0  2  0  0  0  0  0  0  0  0  0
    1.2810    0.9682   -2.7656 O   0  0  0  0  0  0  0  0  0  0  0  0
    3.0196   -0.7696   -2.9309 C   0  0  1  0  0  0  0  0  0  0  0  0
    4.4373   -0.8864   -3.1034 O   0  0  0  0  0  0  0  0  0  0  0  0
    2.4787   -1.8089   -1.9242 C   0  0  2  0  0  0  0  0  0  0  0  0
    1.0470   -1.8544   -2.0070 O   0  0  0  0  0  0  0  0  0  0  0  0
    2.9572   -1.4914   -0.4880 C   0  0  1  0  0  0  0  0  0  0  0  0
    4.3864   -1.5988   -0.4195 O   0  0  0  0  0  0  0  0  0  0  0  0
    0.6856    0.8967    0.2241 H   0  0  0  0  0  0  0  0  0  0  0  0
    0.7558   -0.5310    0.9901 H   0  0  0  0  0  0  0  0  0  0  0  0
    2.9087    0.1326    0.9379 H   0  0  0  0  0  0  0  0  0  0  0  0
    2.5886    1.9614   -0.7627 H   0  0  0  0  0  0  0  0  0  0  0  0
    4.7712    1.6785   -1.5218 H   0  0  0  0  0  0  0  0  0  0  0  0
    3.2388    1.3619   -3.1462 H   0  0  0  0  0  0  0  0  0  0  0  0
    0.7664    0.1568   -2.5824 H   0  0  0  0  0  0  0  0  0  0  0  0
    2.5632   -0.9659   -3.9088 H   0  0  0  0  0  0  0  0  0  0  0  0
    4.8024   -1.3367   -2.3139 H   0  0  0  0  0  0  0  0  0  0  0  0
    2.8593   -2.7969   -2.2094 H   0  0  0  0  0  0  0  0  0  0  0  0
    0.6899   -1.4223   -1.1986 H   0  0  0  0  0  0  0  0  0  0  0  0
    2.5502   -2.2419    0.2004 H   0  0  0  0  0  0  0  0  0  0  0  0
    4.7483   -0.6969   -0.2653 H   0  0  0  0  0  0  0  0  0  0  0  0
  1  2  1  0  0  0  0
  1 13  1  0  0  0  0
  1 14  1  0  0  0  0
  2  3  1  0  0  0  0
  2 11  1  0  0  0  0
  2 15  1  1  0  0  0
  3  4  1  0  0  0  0
  3  5  1  0  0  0  0
  3 16  1  1  0  0  0
  4 17  1  0  0  0  0
  5  7  1  0  0  0  0
  5  6  1  0  0  0  0
  5 18  1  6  0  0  0
  6 19  1  0  0  0  0
  7  8  1  0  0  0  0
  7  9  1  0  0  0  0
  7 20  1  6  0  0  0
  8 21  1  0  0  0  0
  9 11  1  0  0  0  0
  9 10  1  0  0  0  0
  9 22  1  6  0  0  0
 10 23  1  0  0  0  0
 11 12  1  0  0  0  0
 11 24  1  1  0  0  0
 12 25  1  0  0  0  0
M  END
$$$$
