CHEBI:17911
 OpenBabel04242423153D

 56 57  0  0  1  0  0  0  0  0999 V2000
    4.7310   -3.8846   -0.4969 C   0  0  0  0  0  0  0  0  0  0  0  0
    4.1012   -2.5823   -0.0913 C   0  0  0  0  0  0  0  0  0  0  0  0
    4.0002   -2.2297    1.0760 O   0  0  0  0  0  0  0  0  0  0  0  0
    3.6570   -1.8277   -1.1532 N   0  0  0  0  0  0  0  0  0  0  0  0
    3.0724   -0.5117   -0.9297 C   0  0  1  0  0  0  0  0  0  0  0  0
    4.1076    0.5901   -0.5897 C   0  0  1  0  0  0  0  0  0  0  0  0
    4.9710    0.9122   -1.6646 O   0  0  0  0  0  0  0  0  0  0  0  0
    6.2473    0.0105   -2.0044 P   0  0  0  0  0  0  0  0  0  0  0  0
    7.4025    0.7568   -2.5860 O   0  0  0  0  0  0  0  0  0  0  0  0
    6.6560   -0.7243   -0.6470 O   0  0  0  0  0  0  0  0  0  0  0  0
    5.7163   -1.1940   -2.9267 O   0  0  0  0  0  0  0  0  0  0  0  0
    5.6776   -0.9296   -4.3283 C   0  0  0  0  0  0  0  0  0  0  0  0
    4.8878   -2.0289   -5.0504 C   0  0  1  0  0  0  0  0  0  0  0  0
    3.5374   -1.9912   -4.5498 O   0  0  0  0  0  0  0  0  0  0  0  0
    2.6700   -2.9443   -5.1654 C   0  0  2  0  0  0  0  0  0  0  0  0
    3.1157   -4.2596   -4.9026 O   0  0  0  0  0  0  0  0  0  0  0  0
    2.5770   -2.6738   -6.6779 C   0  0  1  0  0  0  0  0  0  0  0  0
    2.0164   -1.3717   -6.9488 O   0  0  0  0  0  0  0  0  0  0  0  0
    3.9725   -2.7288   -7.3019 C   0  0  1  0  0  0  0  0  0  0  0  0
    3.9225   -2.3199   -8.6815 O   0  0  0  0  0  0  0  0  0  0  0  0
    4.9359   -1.7924   -6.5670 C   0  0  2  0  0  0  0  0  0  0  0  0
    6.2612   -1.9851   -7.0695 O   0  0  0  0  0  0  0  0  0  0  0  0
    3.3990    1.7831   -0.1925 O   0  0  0  0  0  0  0  0  0  0  0  0
    2.5483    2.3192   -1.2137 C   0  0  2  0  0  0  0  0  0  0  0  0
    1.8224    3.5357   -0.6157 C   0  0  0  0  0  0  0  0  0  0  0  0
    0.8658    4.0696   -1.5294 O   0  0  0  0  0  0  0  0  0  0  0  0
    1.5325    1.2850   -1.7334 C   0  0  1  0  0  0  0  0  0  0  0  0
    0.8225    1.7481   -2.8918 O   0  0  0  0  0  0  0  0  0  0  0  0
    2.2232   -0.0300   -2.1113 C   0  0  2  0  0  0  0  0  0  0  0  0
    1.2155   -0.9939   -2.4664 O   0  0  0  0  0  0  0  0  0  0  0  0
    4.0788   -4.4157   -1.1955 H   0  0  0  0  0  0  0  0  0  0  0  0
    4.8722   -4.5099    0.3895 H   0  0  0  0  0  0  0  0  0  0  0  0
    5.7015   -3.6957   -0.9618 H   0  0  0  0  0  0  0  0  0  0  0  0
    3.9312   -2.0798   -2.0993 H   0  0  0  0  0  0  0  0  0  0  0  0
    2.4020   -0.6238   -0.0656 H   0  0  0  0  0  0  0  0  0  0  0  0
    4.7001    0.3038    0.2835 H   0  0  0  0  0  0  0  0  0  0  0  0
    7.6230   -0.8462   -0.6046 H   0  0  0  0  0  0  0  0  0  0  0  0
    6.7069   -0.8810   -4.6972 H   0  0  0  0  0  0  0  0  0  0  0  0
    5.1930    0.0417   -4.4820 H   0  0  0  0  0  0  0  0  0  0  0  0
    5.3321   -2.9975   -4.7877 H   0  0  0  0  0  0  0  0  0  0  0  0
    1.6776   -2.8123   -4.7209 H   0  0  0  0  0  0  0  0  0  0  0  0
    2.7637   -4.4870   -4.0243 H   0  0  0  0  0  0  0  0  0  0  0  0
    1.9303   -3.4074   -7.1712 H   0  0  0  0  0  0  0  0  0  0  0  0
    2.1156   -0.8335   -6.1390 H   0  0  0  0  0  0  0  0  0  0  0  0
    4.3645   -3.7522   -7.2938 H   0  0  0  0  0  0  0  0  0  0  0  0
    3.1972   -1.6628   -8.7354 H   0  0  0  0  0  0  0  0  0  0  0  0
    4.6651   -0.7532   -6.7933 H   0  0  0  0  0  0  0  0  0  0  0  0
    6.1667   -2.0555   -8.0419 H   0  0  0  0  0  0  0  0  0  0  0  0
    3.1579    2.6784   -2.0532 H   0  0  0  0  0  0  0  0  0  0  0  0
    2.5452    4.3180   -0.3593 H   0  0  0  0  0  0  0  0  0  0  0  0
    1.3036    3.2555    0.3084 H   0  0  0  0  0  0  0  0  0  0  0  0
    0.4770    4.8510   -1.0927 H   0  0  0  0  0  0  0  0  0  0  0  0
    0.7781    1.0773   -0.9635 H   0  0  0  0  0  0  0  0  0  0  0  0
    0.5573    2.6741   -2.6879 H   0  0  0  0  0  0  0  0  0  0  0  0
    2.8366    0.1085   -3.0090 H   0  0  0  0  0  0  0  0  0  0  0  0
    0.5655   -0.4882   -2.9953 H   0  0  0  0  0  0  0  0  0  0  0  0
  1  2  1  0  0  0  0
  1 31  1  0  0  0  0
  1 32  1  0  0  0  0
  1 33  1  0  0  0  0
  2  3  2  0  0  0  0
  2  4  1  0  0  0  0
  4 34  1  0  0  0  0
  5  6  1  0  0  0  0
  5 29  1  0  0  0  0
  5  4  1  0  0  0  0
  5 35  1  1  0  0  0
  6 23  1  0  0  0  0
  6  7  1  0  0  0  0
  6 36  1  1  0  0  0
  7  8  1  0  0  0  0
  8  9  2  0  0  0  0
  8 10  1  0  0  0  0
  8 11  1  0  0  0  0
 10 37  1  0  0  0  0
 11 12  1  0  0  0  0
 12 13  1  0  0  0  0
 12 38  1  0  0  0  0
 12 39  1  0  0  0  0
 13 14  1  0  0  0  0
 13 21  1  0  0  0  0
 13 40  1  1  0  0  0
 14 15  1  0  0  0  0
 15 17  1  0  0  0  0
 15 16  1  0  0  0  0
 15 41  1  1  0  0  0
 16 42  1  0  0  0  0
 17 18  1  0  0  0  0
 17 19  1  0  0  0  0
 17 43  1  6  0  0  0
 18 44  1  0  0  0  0
 19 20  1  0  0  0  0
 19 21  1  0  0  0  0
 19 45  1  1  0  0  0
 20 46  1  0  0  0  0
 21 22  1  0  0  0  0
 21 47  1  6  0  0  0
 22 48  1  0  0  0  0
 23 24  1  0  0  0  0
 24 25  1  0  0  0  0
 24 27  1  0  0  0  0
 24 49  1  6  0  0  0
 25 26  1  0  0  0  0
 25 50  1  0  0  0  0
 25 51  1  0  0  0  0
 26 52  1  0  0  0  0
 27 28  1  0  0  0  0
 27 29  1  0  0  0  0
 27 53  1  1  0  0  0
 28 54  1  0  0  0  0
 29 30  1  0  0  0  0
 29 55  1  6  0  0  0
 30 56  1  0  0  0  0
M  END
$$$$
