CHEBI:17804
 OpenBabel04242417383D

 28 29  0  0  0  0  0  0  0  0999 V2000
    1.8285   -0.7663    0.9195 C   0  0  0  0  0  0  0  0  0  0  0  0
    2.6806   -1.1720   -0.2441 C   0  0  0  0  0  0  0  0  0  0  0  0
    2.8687   -2.3232   -0.6153 O   0  0  0  0  0  0  0  0  0  0  0  0
    3.3013   -0.0434   -1.0248 C   0  0  0  0  0  0  0  0  0  0  0  0
    2.5491    0.7416   -1.5986 O   0  0  0  0  0  0  0  0  0  0  0  0
    4.8213    0.0661   -1.0389 C   0  0  0  0  0  0  0  0  0  0  0  0
    5.5589   -0.8944   -0.0683 C   0  0  0  0  0  0  0  0  0  0  0  0
    5.3360   -0.4782    1.3233 N   0  0  0  0  0  0  0  0  0  0  0  0
    5.3939    0.8788    1.6634 C   0  0  0  0  0  0  0  0  0  0  0  0
    5.5165    1.2139    2.9863 N   0  0  0  0  0  0  0  0  0  0  0  0
    5.5371    2.4660    3.3073 C   0  0  0  0  0  0  0  0  0  0  0  0
    5.6611    2.8368    4.6054 N   0  0  0  0  0  0  0  0  0  0  0  0
    5.4455    3.4681    2.3974 N   0  0  0  0  0  0  0  0  0  0  0  0
    5.2773    3.2313    1.0672 C   0  0  0  0  0  0  0  0  0  0  0  0
    5.0873    4.1334    0.2561 O   0  0  0  0  0  0  0  0  0  0  0  0
    5.3069    1.7959    0.6635 C   0  0  0  0  0  0  0  0  0  0  0  0
    5.2012    1.4631   -0.6989 N   0  0  0  0  0  0  0  0  0  0  0  0
    1.5327   -1.6553    1.4827 H   0  0  0  0  0  0  0  0  0  0  0  0
    0.9318   -0.2557    0.5602 H   0  0  0  0  0  0  0  0  0  0  0  0
    2.3918   -0.1073    1.5843 H   0  0  0  0  0  0  0  0  0  0  0  0
    5.1453   -0.1513   -2.0629 H   0  0  0  0  0  0  0  0  0  0  0  0
    6.6372   -0.8503   -0.2692 H   0  0  0  0  0  0  0  0  0  0  0  0
    5.2573   -1.9366   -0.1981 H   0  0  0  0  0  0  0  0  0  0  0  0
    5.8072   -1.0300    2.0365 H   0  0  0  0  0  0  0  0  0  0  0  0
    5.9250    2.0530    5.1954 H   0  0  0  0  0  0  0  0  0  0  0  0
    6.2167    3.6621    4.7865 H   0  0  0  0  0  0  0  0  0  0  0  0
    5.3855    4.4280    2.6922 H   0  0  0  0  0  0  0  0  0  0  0  0
    4.7033    2.1913   -1.2198 H   0  0  0  0  0  0  0  0  0  0  0  0
  1  2  1  0  0  0  0
  1 18  1  0  0  0  0
  1 19  1  0  0  0  0
  1 20  1  0  0  0  0
  2  3  2  0  0  0  0
  2  4  1  0  0  0  0
  4  5  2  0  0  0  0
  4  6  1  0  0  0  0
  6  7  1  0  0  0  0
  6 17  1  0  0  0  0
  6 21  1  0  0  0  0
  7  8  1  0  0  0  0
  7 22  1  0  0  0  0
  7 23  1  0  0  0  0
  8  9  1  0  0  0  0
  8 24  1  0  0  0  0
  9 10  1  0  0  0  0
  9 16  2  0  0  0  0
 10 11  2  0  0  0  0
 11 12  1  0  0  0  0
 11 13  1  0  0  0  0
 12 25  1  0  0  0  0
 12 26  1  0  0  0  0
 13 14  1  0  0  0  0
 13 27  1  0  0  0  0
 14 15  2  0  0  0  0
 14 16  1  0  0  0  0
 16 17  1  0  0  0  0
 17 28  1  0  0  0  0
M  END
$$$$
