CHEBI:18371
 OpenBabel04252409283D

 14 14  0  0  0  0  0  0  0  0999 V2000
    2.7681    0.9308    0.6150 O   0  0  0  0  0  0  0  0  0  0  0  0
    2.1355    0.3017   -0.2142 C   0  0  0  0  0  0  0  0  0  0  0  0
    0.7912    0.3039   -0.2908 O   0  0  0  0  0  0  0  0  0  0  0  0
    2.7754   -0.5950   -1.1838 C   0  0  0  0  0  0  0  0  0  0  0  0
    2.5496   -0.5870   -2.5011 C   0  0  0  0  0  0  0  0  0  0  0  0
    1.6902    0.2489   -3.2677 C   0  0  0  0  0  0  0  0  0  0  0  0
    1.7882   -0.0850   -4.5482 C   0  0  0  0  0  0  0  0  0  0  0  0
    2.7580   -1.1783   -4.6051 C   0  0  0  0  0  0  0  0  0  0  0  0
    3.0910   -1.7442   -5.6317 O   0  0  0  0  0  0  0  0  0  0  0  0
    3.2193   -1.4685   -3.3480 O   0  0  0  0  0  0  0  0  0  0  0  0
    0.4234   -0.3765   -0.8852 H   0  0  0  0  0  0  0  0  0  0  0  0
    3.5363   -1.2422   -0.7607 H   0  0  0  0  0  0  0  0  0  0  0  0
    1.0750    1.0501   -2.8841 H   0  0  0  0  0  0  0  0  0  0  0  0
    1.3002    0.3345   -5.4086 H   0  0  0  0  0  0  0  0  0  0  0  0
  1  2  2  0  0  0  0
  2  3  1  0  0  0  0
  2  4  1  0  0  0  0
  3 11  1  0  0  0  0
  4  5  2  0  0  0  0
  4 12  1  0  0  0  0
  5  6  1  0  0  0  0
  5 10  1  0  0  0  0
  6  7  2  0  0  0  0
  6 13  1  0  0  0  0
  7  8  1  0  0  0  0
  7 14  1  0  0  0  0
  8  9  2  0  0  0  0
  8 10  1  0  0  0  0
M  END
$$$$
