CHEBI:8653
 OpenBabel04242411143D

 26 28  0  0  0  0  0  0  0  0999 V2000
    0.9940    0.0846    0.0769 C   0  0  0  0  0  0  0  0  0  0  0  0
    2.4678    0.0214    0.0802 N   0  3  0  0  0  0  0  0  0  0  0  0
    3.1317   -1.1818    0.0816 C   0  0  0  0  0  0  0  0  0  0  0  0
    2.5052   -2.4475    0.0919 C   0  0  0  0  0  0  0  0  0  0  0  0
    3.2515   -3.6317    0.0897 C   0  0  0  0  0  0  0  0  0  0  0  0
    4.6357   -3.5741    0.0786 C   0  0  0  0  0  0  0  0  0  0  0  0
    5.2654   -2.3333    0.0709 C   0  0  0  0  0  0  0  0  0  0  0  0
    4.5396   -1.1516    0.0729 C   0  0  0  0  0  0  0  0  0  0  0  0
    5.2167   -0.0179    0.0668 N   0  0  0  0  0  0  0  0  0  0  0  0
    4.5862    1.1742    0.0717 C   0  0  0  0  0  0  0  0  0  0  0  0
    5.3365    2.3813    0.0693 C   0  0  0  0  0  0  0  0  0  0  0  0
    6.6139    2.4310    0.0621 O   0  5  0  0  0  0  0  0  0  0  0  0
    4.6051    3.5888    0.0756 C   0  0  0  0  0  0  0  0  0  0  0  0
    3.2204    3.6450    0.0845 C   0  0  0  0  0  0  0  0  0  0  0  0
    2.5049    2.4620    0.0870 C   0  0  0  0  0  0  0  0  0  0  0  0
    3.1681    1.2150    0.0795 C   0  0  0  0  0  0  0  0  0  0  0  0
    0.5158   -0.8889    0.0516 H   0  0  0  0  0  0  0  0  0  0  0  0
    0.6789    0.6272   -0.8194 H   0  0  0  0  0  0  0  0  0  0  0  0
    0.6747    0.5915    0.9923 H   0  0  0  0  0  0  0  0  0  0  0  0
    1.4305   -2.5789    0.1040 H   0  0  0  0  0  0  0  0  0  0  0  0
    2.7512   -4.5985    0.0972 H   0  0  0  0  0  0  0  0  0  0  0  0
    5.2312   -4.4846    0.0770 H   0  0  0  0  0  0  0  0  0  0  0  0
    6.3541   -2.2768    0.0637 H   0  0  0  0  0  0  0  0  0  0  0  0
    5.1674    4.5262    0.0739 H   0  0  0  0  0  0  0  0  0  0  0  0
    2.7232    4.6106    0.0897 H   0  0  0  0  0  0  0  0  0  0  0  0
    1.4261    2.5583    0.0957 H   0  0  0  0  0  0  0  0  0  0  0  0
  1  2  1  0  0  0  0
  1 17  1  0  0  0  0
  1 18  1  0  0  0  0
  1 19  1  0  0  0  0
  2  3  1  0  0  0  0
  2 16  2  0  0  0  0
  3  4  1  0  0  0  0
  3  8  2  0  0  0  0
  4  5  2  0  0  0  0
  4 20  1  0  0  0  0
  5  6  1  0  0  0  0
  5 21  1  0  0  0  0
  6  7  2  0  0  0  0
  6 22  1  0  0  0  0
  7  8  1  0  0  0  0
  7 23  1  0  0  0  0
  8  9  1  0  0  0  0
  9 10  2  0  0  0  0
 10 11  1  0  0  0  0
 10 16  1  0  0  0  0
 11 12  1  0  0  0  0
 11 13  2  0  0  0  0
 13 14  1  0  0  0  0
 13 24  1  0  0  0  0
 14 15  2  0  0  0  0
 14 25  1  0  0  0  0
 15 16  1  0  0  0  0
 15 26  1  0  0  0  0
M  CHG  2   2   1  12  -1
M  END
$$$$
