CHEBI:17982
 OpenBabel04242423223D

 25 24  0  0  0  0  0  0  0  0999 V2000
    3.9180   -3.0619   -2.8745 C   0  0  0  0  0  0  0  0  0  0  0  0
    4.8408   -3.1854   -1.6934 C   0  0  0  0  0  0  0  0  0  0  0  0
    5.8091   -3.9413   -1.6918 O   0  0  0  0  0  0  0  0  0  0  0  0
    4.4688   -2.4060   -0.6295 N   0  0  0  0  0  0  0  0  0  0  0  0
    5.2687   -2.2578    0.5594 C   0  0  0  0  0  0  0  0  0  0  0  0
    6.4383   -1.2880    0.3737 C   0  0  0  0  0  0  0  0  0  0  0  0
    6.0164    0.1798    0.3217 C   0  0  0  0  0  0  0  0  0  0  0  0
    5.3979    0.5901   -1.0057 C   0  0  0  0  0  0  0  0  0  0  0  0
    6.0254    0.4358   -2.0605 O   0  0  0  0  0  0  0  0  0  0  0  0
    4.1067    1.3621   -0.9882 C   0  0  0  0  0  0  0  0  0  0  0  0
    3.0764    0.6094   -0.1825 C   0  0  0  0  0  0  0  0  0  0  0  0
    2.7806    1.1208    0.9312 O   0  0  0  0  0  0  0  0  0  0  0  0
    2.6681   -0.4712   -0.6982 O   0  5  0  0  0  0  0  0  0  0  0  0
    4.3933   -3.5036   -3.7550 H   0  0  0  0  0  0  0  0  0  0  0  0
    3.7112   -2.0095   -3.0886 H   0  0  0  0  0  0  0  0  0  0  0  0
    2.9836   -3.5894   -2.6664 H   0  0  0  0  0  0  0  0  0  0  0  0
    3.6520   -1.7783   -0.7352 H   0  0  0  0  0  0  0  0  0  0  0  0
    5.6591   -3.2447    0.8312 H   0  0  0  0  0  0  0  0  0  0  0  0
    4.6078   -1.9247    1.3664 H   0  0  0  0  0  0  0  0  0  0  0  0
    7.0158   -1.5530   -0.5196 H   0  0  0  0  0  0  0  0  0  0  0  0
    7.1087   -1.4091    1.2335 H   0  0  0  0  0  0  0  0  0  0  0  0
    6.9014    0.8158    0.4514 H   0  0  0  0  0  0  0  0  0  0  0  0
    5.3511    0.4164    1.1561 H   0  0  0  0  0  0  0  0  0  0  0  0
    3.7415    1.4831   -2.0137 H   0  0  0  0  0  0  0  0  0  0  0  0
    4.2981    2.3566   -0.5731 H   0  0  0  0  0  0  0  0  0  0  0  0
  1  2  1  0  0  0  0
  1 14  1  0  0  0  0
  1 15  1  0  0  0  0
  1 16  1  0  0  0  0
  2  3  2  0  0  0  0
  2  4  1  0  0  0  0
  4  5  1  0  0  0  0
  4 17  1  0  0  0  0
  5  6  1  0  0  0  0
  5 18  1  0  0  0  0
  5 19  1  0  0  0  0
  6  7  1  0  0  0  0
  6 20  1  0  0  0  0
  6 21  1  0  0  0  0
  7  8  1  0  0  0  0
  7 22  1  0  0  0  0
  7 23  1  0  0  0  0
  8  9  2  0  0  0  0
  8 10  1  0  0  0  0
 10 11  1  0  0  0  0
 10 24  1  0  0  0  0
 10 25  1  0  0  0  0
 11 12  2  0  0  0  0
 11 13  1  0  0  0  0
M  CHG  1  13  -1
M  END
$$$$
