CHEBI:8772
 OpenBabel04242411153D

 61 65  0  0  0  0  0  0  0  0999 V2000
    5.7751   -0.6509   -1.8435 O   0  0  0  0  0  0  0  0  0  0  0  0
    4.6773   -0.4076   -1.3474 C   0  0  0  0  0  0  0  0  0  0  0  0
    4.6123    0.4797   -0.1527 C   0  0  0  0  0  0  0  0  0  0  0  0
    5.6084    1.4513    0.0029 C   0  0  0  0  0  0  0  0  0  0  0  0
    5.5959    2.3071    1.1075 C   0  0  0  0  0  0  0  0  0  0  0  0
    4.5906    2.1944    2.0677 C   0  0  0  0  0  0  0  0  0  0  0  0
    4.5090    2.9541    3.2028 O   0  0  0  0  0  0  0  0  0  0  0  0
    4.9353    4.3159    3.0589 C   0  0  0  0  0  0  0  0  0  0  0  0
    4.7789    5.0173    4.4182 C   0  0  0  0  0  0  0  0  0  0  0  0
    5.2269    6.4232    4.3885 N   0  0  0  0  0  0  0  0  0  0  0  0
    4.2093    7.2963    3.7792 C   0  0  0  0  0  0  0  0  0  0  0  0
    4.6985    8.7437    3.6952 C   0  0  0  0  0  0  0  0  0  0  0  0
    5.1182    9.2709    5.0618 C   0  0  0  0  0  0  0  0  0  0  0  0
    6.1057    8.3164    5.7209 C   0  0  0  0  0  0  0  0  0  0  0  0
    5.5622    6.8866    5.7448 C   0  0  0  0  0  0  0  0  0  0  0  0
    3.6190    1.1996    1.9346 C   0  0  0  0  0  0  0  0  0  0  0  0
    3.6232    0.3440    0.8282 C   0  0  0  0  0  0  0  0  0  0  0  0
    3.4473   -0.9787   -1.8979 C   0  0  0  0  0  0  0  0  0  0  0  0
    2.3224   -0.2373   -2.2347 C   0  0  0  0  0  0  0  0  0  0  0  0
    2.1056    1.2144   -2.1827 C   0  0  0  0  0  0  0  0  0  0  0  0
    2.9685    2.0773   -2.8765 C   0  0  0  0  0  0  0  0  0  0  0  0
    2.7962    3.4625   -2.8096 C   0  0  0  0  0  0  0  0  0  0  0  0
    1.7559    3.9849   -2.0489 C   0  0  0  0  0  0  0  0  0  0  0  0
    1.5495    5.3288   -1.9526 O   0  0  0  0  0  0  0  0  0  0  0  0
    0.8878    3.1478   -1.3592 C   0  0  0  0  0  0  0  0  0  0  0  0
    1.0607    1.7639   -1.4255 C   0  0  0  0  0  0  0  0  0  0  0  0
    1.0704   -1.2278   -2.8459 S   0  0  0  0  0  0  0  0  0  0  0  0
    2.0190   -2.6537   -2.7387 C   0  0  0  0  0  0  0  0  0  0  0  0
    1.6263   -3.9554   -3.1160 C   0  0  0  0  0  0  0  0  0  0  0  0
    2.5428   -4.9925   -2.9604 C   0  0  0  0  0  0  0  0  0  0  0  0
    2.2282   -6.2733   -3.3111 O   0  0  0  0  0  0  0  0  0  0  0  0
    3.8065   -4.7651   -2.4483 C   0  0  0  0  0  0  0  0  0  0  0  0
    4.1859   -3.4729   -2.0766 C   0  0  0  0  0  0  0  0  0  0  0  0
    3.2865   -2.3835   -2.2190 C   0  0  0  0  0  0  0  0  0  0  0  0
    6.4052    1.5421   -0.7331 H   0  0  0  0  0  0  0  0  0  0  0  0
    6.4010    3.0276    1.2034 H   0  0  0  0  0  0  0  0  0  0  0  0
    4.3212    4.8018    2.2924 H   0  0  0  0  0  0  0  0  0  0  0  0
    5.9916    4.3667    2.7738 H   0  0  0  0  0  0  0  0  0  0  0  0
    5.3887    4.4460    5.1317 H   0  0  0  0  0  0  0  0  0  0  0  0
    3.7468    4.9261    4.7818 H   0  0  0  0  0  0  0  0  0  0  0  0
    3.2723    7.2593    4.3506 H   0  0  0  0  0  0  0  0  0  0  0  0
    3.9803    6.9646    2.7608 H   0  0  0  0  0  0  0  0  0  0  0  0
    3.9052    9.3783    3.2841 H   0  0  0  0  0  0  0  0  0  0  0  0
    5.5474    8.8039    3.0023 H   0  0  0  0  0  0  0  0  0  0  0  0
    4.2329    9.3770    5.7005 H   0  0  0  0  0  0  0  0  0  0  0  0
    5.5646   10.2662    4.9611 H   0  0  0  0  0  0  0  0  0  0  0  0
    6.3161    8.6504    6.7432 H   0  0  0  0  0  0  0  0  0  0  0  0
    7.0582    8.3396    5.1757 H   0  0  0  0  0  0  0  0  0  0  0  0
    4.6868    6.8324    6.4051 H   0  0  0  0  0  0  0  0  0  0  0  0
    6.3377    6.2420    6.1767 H   0  0  0  0  0  0  0  0  0  0  0  0
    2.8518    1.0918    2.6978 H   0  0  0  0  0  0  0  0  0  0  0  0
    2.8586   -0.4249    0.7574 H   0  0  0  0  0  0  0  0  0  0  0  0
    3.7811    1.6746   -3.4789 H   0  0  0  0  0  0  0  0  0  0  0  0
    3.4782    4.1084   -3.3534 H   0  0  0  0  0  0  0  0  0  0  0  0
    2.2113    5.7853   -2.4975 H   0  0  0  0  0  0  0  0  0  0  0  0
    0.0793    3.5705   -0.7696 H   0  0  0  0  0  0  0  0  0  0  0  0
    0.3785    1.1221   -0.8730 H   0  0  0  0  0  0  0  0  0  0  0  0
    0.6346   -4.1272   -3.5199 H   0  0  0  0  0  0  0  0  0  0  0  0
    1.3310   -6.2872   -3.6826 H   0  0  0  0  0  0  0  0  0  0  0  0
    4.5068   -5.5889   -2.3398 H   0  0  0  0  0  0  0  0  0  0  0  0
    5.1877   -3.3061   -1.6846 H   0  0  0  0  0  0  0  0  0  0  0  0
  1  2  2  0  0  0  0
  2  3  1  0  0  0  0
  2 18  1  0  0  0  0
  3  4  1  0  0  0  0
  3 17  2  0  0  0  0
  4  5  2  0  0  0  0
  4 35  1  0  0  0  0
  5  6  1  0  0  0  0
  5 36  1  0  0  0  0
  6  7  1  0  0  0  0
  6 16  2  0  0  0  0
  7  8  1  0  0  0  0
  8  9  1  0  0  0  0
  8 37  1  0  0  0  0
  8 38  1  0  0  0  0
  9 10  1  0  0  0  0
  9 39  1  0  0  0  0
  9 40  1  0  0  0  0
 10 11  1  0  0  0  0
 10 15  1  0  0  0  0
 11 12  1  0  0  0  0
 11 41  1  0  0  0  0
 11 42  1  0  0  0  0
 12 13  1  0  0  0  0
 12 43  1  0  0  0  0
 12 44  1  0  0  0  0
 13 14  1  0  0  0  0
 13 45  1  0  0  0  0
 13 46  1  0  0  0  0
 14 15  1  0  0  0  0
 14 47  1  0  0  0  0
 14 48  1  0  0  0  0
 15 49  1  0  0  0  0
 15 50  1  0  0  0  0
 16 17  1  0  0  0  0
 16 51  1  0  0  0  0
 17 52  1  0  0  0  0
 18 19  2  0  0  0  0
 18 34  1  0  0  0  0
 19 20  1  0  0  0  0
 19 27  1  0  0  0  0
 20 21  1  0  0  0  0
 20 26  2  0  0  0  0
 21 22  2  0  0  0  0
 21 53  1  0  0  0  0
 22 23  1  0  0  0  0
 22 54  1  0  0  0  0
 23 24  1  0  0  0  0
 23 25  2  0  0  0  0
 24 55  1  0  0  0  0
 25 26  1  0  0  0  0
 25 56  1  0  0  0  0
 26 57  1  0  0  0  0
 27 28  1  0  0  0  0
 28 29  1  0  0  0  0
 28 34  2  0  0  0  0
 29 30  2  0  0  0  0
 29 58  1  0  0  0  0
 30 31  1  0  0  0  0
 30 32  1  0  0  0  0
 31 59  1  0  0  0  0
 32 33  2  0  0  0  0
 32 60  1  0  0  0  0
 33 34  1  0  0  0  0
 33 61  1  0  0  0  0
M  END
$$$$
