CHEBI:15821
 OpenBabel04242413193D

 18 18  0  0  0  0  0  0  0  0999 V2000
   -1.5785   -1.7230   -0.0138 C   0  0  0  0  0  0  0  0  0  0  0  0
   -0.4103   -0.7821    0.0187 C   0  0  0  0  0  0  0  0  0  0  0  0
    0.8273   -1.3404    0.0974 N   0  0  0  0  0  0  0  0  0  0  0  0
    1.8868   -0.4995    0.1445 C   0  0  0  0  0  0  0  0  0  0  0  0
    1.7746    0.8810    0.0774 C   0  0  0  0  0  0  0  0  0  0  0  0
    2.9538    1.7621    0.1209 C   0  0  0  0  0  0  0  0  0  0  0  0
    2.9419    2.8388    0.6917 O   0  0  0  0  0  0  0  0  0  0  0  0
    4.0165    1.2960   -0.5663 O   0  0  0  0  0  0  0  0  0  0  0  0
    0.4995    1.4438    0.0172 C   0  0  0  0  0  0  0  0  0  0  0  0
   -0.6052    0.6003   -0.0122 C   0  0  0  0  0  0  0  0  0  0  0  0
   -1.8690    1.1109   -0.0705 O   0  0  0  0  0  0  0  0  0  0  0  0
   -1.2386   -2.7638   -0.0140 H   0  0  0  0  0  0  0  0  0  0  0  0
   -2.1729   -1.5621   -0.9186 H   0  0  0  0  0  0  0  0  0  0  0  0
   -2.2106   -1.5728    0.8669 H   0  0  0  0  0  0  0  0  0  0  0  0
    2.8469   -0.9954    0.2568 H   0  0  0  0  0  0  0  0  0  0  0  0
    3.8549    0.5280   -1.1464 H   0  0  0  0  0  0  0  0  0  0  0  0
    0.3877    2.5243   -0.0039 H   0  0  0  0  0  0  0  0  0  0  0  0
   -1.8280    2.0806   -0.0096 H   0  0  0  0  0  0  0  0  0  0  0  0
  1  2  1  0  0  0  0
  1 12  1  0  0  0  0
  1 13  1  0  0  0  0
  1 14  1  0  0  0  0
  2  3  1  0  0  0  0
  2 10  2  0  0  0  0
  3  4  2  0  0  0  0
  4  5  1  0  0  0  0
  4 15  1  0  0  0  0
  5  6  1  0  0  0  0
  5  9  2  0  0  0  0
  6  7  2  0  0  0  0
  6  8  1  0  0  0  0
  8 16  1  0  0  0  0
  9 10  1  0  0  0  0
  9 17  1  0  0  0  0
 10 11  1  0  0  0  0
 11 18  1  0  0  0  0
M  END
$$$$
