CHEBI:16086
 OpenBabel04242413483D

122125  0  0  1  0  0  0  0  0999 V2000
    9.4999    2.8963    0.8267 C   0  0  0  0  0  0  0  0  0  0  0  0
    9.9458    1.6292    1.5001 C   0  0  0  0  0  0  0  0  0  0  0  0
   10.8983    1.5801    2.2713 O   0  0  0  0  0  0  0  0  0  0  0  0
    9.1622    0.5402    1.2050 N   0  0  0  0  0  0  0  0  0  0  0  0
    9.3533   -0.7370    1.8992 C   0  0  1  0  0  0  0  0  0  0  0  0
    8.7276   -0.6812    3.2990 C   0  0  0  0  0  0  0  0  0  0  0  0
    9.2551   -2.0878    4.3364 S   0  0  0  0  0  0  0  0  0  0  0  0
    8.2192   -1.7308    6.0842 S   0  0  0  0  0  0  0  0  0  0  0  0
    9.0506   -0.2485    6.7830 C   0  0  0  0  0  0  0  0  0  0  0  0
   10.5452   -0.4360    7.0678 C   0  0  2  0  0  0  0  0  0  0  0  0
   10.7777   -1.4247    8.1271 N   0  0  0  0  0  0  0  0  0  0  0  0
   11.9180   -2.1853    8.1919 C   0  0  0  0  0  0  0  0  0  0  0  0
   11.8702   -3.2949    9.2096 C   0  0  0  0  0  0  0  0  0  0  0  0
   12.8964   -1.9674    7.4862 O   0  0  0  0  0  0  0  0  0  0  0  0
   11.1960    0.9329    7.3788 C   0  0  0  0  0  0  0  0  0  0  0  0
   10.6274    2.0045    7.1885 O   0  0  0  0  0  0  0  0  0  0  0  0
   12.5317    0.8520    7.7155 N   0  0  0  0  0  0  0  0  0  0  0  0
   13.4415    2.0039    7.6140 C   0  0  1  0  0  0  0  0  0  0  0  0
   13.0187    3.2663    8.4390 C   0  0  1  0  0  0  0  0  0  0  0  0
   12.7912    2.9522    9.8210 O   0  0  0  0  0  0  0  0  0  0  0  0
   11.9096    3.8797   10.4905 C   0  0  2  0  0  0  0  0  0  0  0  0
   12.6700    4.9174   11.3578 C   0  0  2  0  0  0  0  0  0  0  0  0
   13.6262    5.6815   10.6210 O   0  0  0  0  0  0  0  0  0  0  0  0
   13.3816    4.2942   12.5744 C   0  0  2  0  0  0  0  0  0  0  0  0
   14.4659    3.4546   12.1716 O   0  0  0  0  0  0  0  0  0  0  0  0
   12.4035    3.4880   13.4384 C   0  0  1  0  0  0  0  0  0  0  0  0
   11.4650    4.3849   14.0507 O   0  0  0  0  0  0  0  0  0  0  0  0
   11.6342    2.4399   12.6058 C   0  0  2  0  0  0  0  0  0  0  0  0
   12.4900    1.3712   12.1998 O   0  0  0  0  0  0  0  0  0  0  0  0
   10.9320    3.0871   11.3897 C   0  0  1  0  0  0  0  0  0  0  0  0
    9.8694    3.9541   11.8164 O   0  0  0  0  0  0  0  0  0  0  0  0
   13.9985    4.3137    8.3283 O   0  0  0  0  0  0  0  0  0  0  0  0
   15.2961    3.8954    8.7789 C   0  0  2  0  0  0  0  0  0  0  0  0
   16.2590    5.0900    8.8224 C   0  0  0  0  0  0  0  0  0  0  0  0
   17.4270    4.7799    9.5796 O   0  0  0  0  0  0  0  0  0  0  0  0
   15.8300    2.7727    7.8930 C   0  0  1  0  0  0  0  0  0  0  0  0
   17.1429    2.3674    8.3033 O   0  0  0  0  0  0  0  0  0  0  0  0
   14.8770    1.5761    7.9723 C   0  0  2  0  0  0  0  0  0  0  0  0
   15.3821    0.5844    7.0559 O   0  0  0  0  0  0  0  0  0  0  0  0
    8.6355   -1.7845    1.0452 C   0  0  0  0  0  0  0  0  0  0  0  0
    7.4087   -1.8307    0.9569 O   0  0  0  0  0  0  0  0  0  0  0  0
    9.4380   -2.5967    0.2829 N   0  0  0  0  0  0  0  0  0  0  0  0
    8.8884   -3.5586   -0.6864 C   0  0  1  0  0  0  0  0  0  0  0  0
    9.8708   -3.8170   -1.8630 C   0  0  1  0  0  0  0  0  0  0  0  0
   11.1613   -4.1582   -1.3431 O   0  0  0  0  0  0  0  0  0  0  0  0
   12.1428   -4.5356   -2.3337 C   0  0  2  0  0  0  0  0  0  0  0  0
   13.4667   -4.8988   -1.6093 C   0  0  2  0  0  0  0  0  0  0  0  0
   13.2010   -5.7956   -0.5154 O   0  0  0  0  0  0  0  0  0  0  0  0
   14.1850   -3.6597   -1.0372 C   0  0  2  0  0  0  0  0  0  0  0  0
   13.3977   -3.0934    0.0235 O   0  0  0  0  0  0  0  0  0  0  0  0
   14.4395   -2.5967   -2.1170 C   0  0  1  0  0  0  0  0  0  0  0  0
   15.3692   -3.0995   -3.0842 O   0  0  0  0  0  0  0  0  0  0  0  0
   13.1234   -2.2127   -2.8260 C   0  0  2  0  0  0  0  0  0  0  0  0
   12.2531   -1.5013   -1.9421 O   0  0  0  0  0  0  0  0  0  0  0  0
   12.4262   -3.4619   -3.4126 C   0  0  1  0  0  0  0  0  0  0  0  0
   13.2124   -4.0466   -4.4632 O   0  0  0  0  0  0  0  0  0  0  0  0
    9.3600   -4.7804   -2.7815 O   0  0  0  0  0  0  0  0  0  0  0  0
    9.0250   -6.0408   -2.1876 C   0  0  2  0  0  0  0  0  0  0  0  0
    8.5194   -6.9786   -3.2950 C   0  0  0  0  0  0  0  0  0  0  0  0
    8.2859   -8.3018   -2.8258 O   0  0  0  0  0  0  0  0  0  0  0  0
    7.9659   -5.8514   -1.0986 C   0  0  1  0  0  0  0  0  0  0  0  0
    7.5927   -7.0961   -0.4956 O   0  0  0  0  0  0  0  0  0  0  0  0
    8.4918   -4.8931   -0.0246 C   0  0  2  0  0  0  0  0  0  0  0  0
    7.4387   -4.7648    0.9470 O   0  0  0  0  0  0  0  0  0  0  0  0
   10.2565    3.6730    0.9674 H   0  0  0  0  0  0  0  0  0  0  0  0
    8.5577    3.2310    1.2697 H   0  0  0  0  0  0  0  0  0  0  0  0
    9.3656    2.7279   -0.2452 H   0  0  0  0  0  0  0  0  0  0  0  0
    8.2957    0.6762    0.6933 H   0  0  0  0  0  0  0  0  0  0  0  0
   10.4294   -0.9401    1.9501 H   0  0  0  0  0  0  0  0  0  0  0  0
    7.6335   -0.6704    3.2413 H   0  0  0  0  0  0  0  0  0  0  0  0
    9.0421    0.2377    3.8032 H   0  0  0  0  0  0  0  0  0  0  0  0
    8.5237    0.0010    7.7115 H   0  0  0  0  0  0  0  0  0  0  0  0
    8.8725    0.5832    6.0941 H   0  0  0  0  0  0  0  0  0  0  0  0
   11.0590   -0.7859    6.1639 H   0  0  0  0  0  0  0  0  0  0  0  0
   10.1091   -1.4771    8.8860 H   0  0  0  0  0  0  0  0  0  0  0  0
   10.9680   -3.2416    9.8258 H   0  0  0  0  0  0  0  0  0  0  0  0
   12.7421   -3.2213    9.8637 H   0  0  0  0  0  0  0  0  0  0  0  0
   11.8763   -4.2564    8.6883 H   0  0  0  0  0  0  0  0  0  0  0  0
   12.9330   -0.0738    7.5740 H   0  0  0  0  0  0  0  0  0  0  0  0
   13.4382    2.2857    6.5515 H   0  0  0  0  0  0  0  0  0  0  0  0
   12.1002    3.6646    7.9987 H   0  0  0  0  0  0  0  0  0  0  0  0
   11.3191    4.4345    9.7496 H   0  0  0  0  0  0  0  0  0  0  0  0
   11.9383    5.6457   11.7278 H   0  0  0  0  0  0  0  0  0  0  0  0
   13.4527    5.5437    9.6684 H   0  0  0  0  0  0  0  0  0  0  0  0
   13.8209    5.1020   13.1729 H   0  0  0  0  0  0  0  0  0  0  0  0
   15.1205    4.0626   11.7713 H   0  0  0  0  0  0  0  0  0  0  0  0
   12.9569    2.9695   14.2310 H   0  0  0  0  0  0  0  0  0  0  0  0
   11.9602    4.8886   14.7259 H   0  0  0  0  0  0  0  0  0  0  0  0
   10.8586    2.0050   13.2483 H   0  0  0  0  0  0  0  0  0  0  0  0
   13.2611    1.7793   11.7495 H   0  0  0  0  0  0  0  0  0  0  0  0
   10.4779    2.2921   10.7866 H   0  0  0  0  0  0  0  0  0  0  0  0
   10.0875    4.2847   12.7149 H   0  0  0  0  0  0  0  0  0  0  0  0
   15.2239    3.5109    9.7987 H   0  0  0  0  0  0  0  0  0  0  0  0
   15.7849    5.9602    9.2852 H   0  0  0  0  0  0  0  0  0  0  0  0
   16.5601    5.3952    7.8152 H   0  0  0  0  0  0  0  0  0  0  0  0
   17.7420    3.9083    9.2554 H   0  0  0  0  0  0  0  0  0  0  0  0
   15.9094    3.1130    6.8528 H   0  0  0  0  0  0  0  0  0  0  0  0
   17.3155    1.5426    7.8023 H   0  0  0  0  0  0  0  0  0  0  0  0
   14.9185    1.1247    8.9714 H   0  0  0  0  0  0  0  0  0  0  0  0
   14.9004   -0.2496    7.2131 H   0  0  0  0  0  0  0  0  0  0  0  0
   10.4455   -2.5941    0.4148 H   0  0  0  0  0  0  0  0  0  0  0  0
    7.9718   -3.1149   -1.0983 H   0  0  0  0  0  0  0  0  0  0  0  0
    9.9643   -2.8700   -2.4038 H   0  0  0  0  0  0  0  0  0  0  0  0
   11.7919   -5.4568   -2.8142 H   0  0  0  0  0  0  0  0  0  0  0  0
   14.1286   -5.4177   -2.3136 H   0  0  0  0  0  0  0  0  0  0  0  0
   13.9872   -6.3594   -0.4017 H   0  0  0  0  0  0  0  0  0  0  0  0
   15.1351   -3.9771   -0.5915 H   0  0  0  0  0  0  0  0  0  0  0  0
   13.0328   -3.8740    0.4965 H   0  0  0  0  0  0  0  0  0  0  0  0
   14.8623   -1.6959   -1.6551 H   0  0  0  0  0  0  0  0  0  0  0  0
   16.2629   -2.8539   -2.7756 H   0  0  0  0  0  0  0  0  0  0  0  0
   13.3649   -1.5401   -3.6582 H   0  0  0  0  0  0  0  0  0  0  0  0
   12.4057   -1.8575   -1.0403 H   0  0  0  0  0  0  0  0  0  0  0  0
   11.4871   -3.1487   -3.8770 H   0  0  0  0  0  0  0  0  0  0  0  0
   14.1519   -3.8027   -4.3205 H   0  0  0  0  0  0  0  0  0  0  0  0
    9.9194   -6.5006   -1.7478 H   0  0  0  0  0  0  0  0  0  0  0  0
    9.2539   -7.0319   -4.1058 H   0  0  0  0  0  0  0  0  0  0  0  0
    7.5934   -6.5938   -3.7375 H   0  0  0  0  0  0  0  0  0  0  0  0
    7.8439   -8.2201   -1.9525 H   0  0  0  0  0  0  0  0  0  0  0  0
    7.0510   -5.4284   -1.5349 H   0  0  0  0  0  0  0  0  0  0  0  0
    7.1040   -6.8352    0.3155 H   0  0  0  0  0  0  0  0  0  0  0  0
    9.3432   -5.3369    0.5054 H   0  0  0  0  0  0  0  0  0  0  0  0
    7.4723   -3.8610    1.3163 H   0  0  0  0  0  0  0  0  0  0  0  0
  1  2  1  0  0  0  0
  1 65  1  0  0  0  0
  1 66  1  0  0  0  0
  1 67  1  0  0  0  0
  2  3  2  0  0  0  0
  2  4  1  0  0  0  0
  4  5  1  0  0  0  0
  4 68  1  0  0  0  0
  5  6  1  0  0  0  0
  5 40  1  0  0  0  0
  5 69  1  1  0  0  0
  6  7  1  0  0  0  0
  6 70  1  0  0  0  0
  6 71  1  0  0  0  0
  7  8  1  0  0  0  0
  8  9  1  0  0  0  0
  9 72  1  0  0  0  0
  9 73  1  0  0  0  0
 10 15  1  0  0  0  0
 10 11  1  0  0  0  0
 10  9  1  0  0  0  0
 10 74  1  6  0  0  0
 11 12  1  0  0  0  0
 11 75  1  0  0  0  0
 12 13  1  0  0  0  0
 12 14  2  0  0  0  0
 13 76  1  0  0  0  0
 13 77  1  0  0  0  0
 13 78  1  0  0  0  0
 15 16  2  0  0  0  0
 15 17  1  0  0  0  0
 17 79  1  0  0  0  0
 18 19  1  0  0  0  0
 18 38  1  0  0  0  0
 18 17  1  0  0  0  0
 18 80  1  6  0  0  0
 19 32  1  0  0  0  0
 19 20  1  0  0  0  0
 19 81  1  6  0  0  0
 20 21  1  0  0  0  0
 21 22  1  0  0  0  0
 21 30  1  0  0  0  0
 21 82  1  6  0  0  0
 22 24  1  0  0  0  0
 22 23  1  0  0  0  0
 22 83  1  1  0  0  0
 23 84  1  0  0  0  0
 24 26  1  0  0  0  0
 24 25  1  0  0  0  0
 24 85  1  1  0  0  0
 25 86  1  0  0  0  0
 26 27  1  0  0  0  0
 26 28  1  0  0  0  0
 26 87  1  1  0  0  0
 27 88  1  0  0  0  0
 28 30  1  0  0  0  0
 28 29  1  0  0  0  0
 28 89  1  1  0  0  0
 29 90  1  0  0  0  0
 30 31  1  0  0  0  0
 30 91  1  6  0  0  0
 31 92  1  0  0  0  0
 32 33  1  0  0  0  0
 33 34  1  0  0  0  0
 33 36  1  0  0  0  0
 33 93  1  1  0  0  0
 34 35  1  0  0  0  0
 34 94  1  0  0  0  0
 34 95  1  0  0  0  0
 35 96  1  0  0  0  0
 36 37  1  0  0  0  0
 36 38  1  0  0  0  0
 36 97  1  6  0  0  0
 37 98  1  0  0  0  0
 38 39  1  0  0  0  0
 38 99  1  1  0  0  0
 39100  1  0  0  0  0
 40 41  2  0  0  0  0
 40 42  1  0  0  0  0
 42101  1  0  0  0  0
 43 44  1  0  0  0  0
 43 63  1  0  0  0  0
 43 42  1  0  0  0  0
 43102  1  6  0  0  0
 44 57  1  0  0  0  0
 44 45  1  0  0  0  0
 44103  1  6  0  0  0
 45 46  1  0  0  0  0
 46 47  1  0  0  0  0
 46 55  1  0  0  0  0
 46104  1  6  0  0  0
 47 49  1  0  0  0  0
 47 48  1  0  0  0  0
 47105  1  6  0  0  0
 48106  1  0  0  0  0
 49 51  1  0  0  0  0
 49 50  1  0  0  0  0
 49107  1  1  0  0  0
 50108  1  0  0  0  0
 51 52  1  0  0  0  0
 51 53  1  0  0  0  0
 51109  1  1  0  0  0
 52110  1  0  0  0  0
 53 55  1  0  0  0  0
 53 54  1  0  0  0  0
 53111  1  6  0  0  0
 54112  1  0  0  0  0
 55 56  1  0  0  0  0
 55113  1  6  0  0  0
 56114  1  0  0  0  0
 57 58  1  0  0  0  0
 58 59  1  0  0  0  0
 58 61  1  0  0  0  0
 58115  1  1  0  0  0
 59 60  1  0  0  0  0
 59116  1  0  0  0  0
 59117  1  0  0  0  0
 60118  1  0  0  0  0
 61 62  1  0  0  0  0
 61 63  1  0  0  0  0
 61119  1  6  0  0  0
 62120  1  0  0  0  0
 63 64  1  0  0  0  0
 63121  1  1  0  0  0
 64122  1  0  0  0  0
M  END
$$$$
