CHEBI:16992
 OpenBabel04242415393D

 11 10  0  0  0  0  0  0  0  0999 V2000
    1.7420    0.2488    1.2425 O   0  0  0  0  0  0  0  0  0  0  0  0
    2.3602   -0.1343    0.2496 C   0  0  0  0  0  0  0  0  0  0  0  0
    3.1718    0.8183   -0.5987 C   0  0  0  0  0  0  0  0  0  0  0  0
    3.1522    2.1493   -0.0613 O   0  0  0  0  0  0  0  0  0  0  0  0
    4.6113    0.3541   -0.7112 C   0  0  0  0  0  0  0  0  0  0  0  0
    4.9582   -0.8044   -0.8805 O   0  0  0  0  0  0  0  0  0  0  0  0
    5.4845    1.3912   -0.6327 O   0  0  0  0  0  0  0  0  0  0  0  0
    2.3246   -1.1846   -0.0869 H   0  0  0  0  0  0  0  0  0  0  0  0
    2.7397    0.8571   -1.6026 H   0  0  0  0  0  0  0  0  0  0  0  0
    2.6933    2.0771    0.8059 H   0  0  0  0  0  0  0  0  0  0  0  0
    4.9711    2.2179   -0.4604 H   0  0  0  0  0  0  0  0  0  0  0  0
  1  2  2  0  0  0  0
  2  3  1  0  0  0  0
  2  8  1  0  0  0  0
  3  4  1  0  0  0  0
  3  5  1  0  0  0  0
  3  9  1  0  0  0  0
  4 10  1  0  0  0  0
  5  6  2  0  0  0  0
  5  7  1  0  0  0  0
  7 11  1  0  0  0  0
M  END
$$$$
