CHEBI:17534
 OpenBabel04242416463D

 21 20  0  0  0  0  0  0  0  0999 V2000
    0.9026    0.0519    0.2809 N   0  0  0  0  0  0  0  0  0  0  0  0
    2.3416    0.1869    0.0917 C   0  0  0  0  0  0  0  0  0  0  0  0
    2.8030   -0.6924   -1.0697 C   0  0  0  0  0  0  0  0  0  0  0  0
    4.3111   -0.5539   -1.3043 C   0  0  0  0  0  0  0  0  0  0  0  0
    4.8111   -1.4461   -2.4400 C   0  0  0  0  0  0  0  0  0  0  0  0
    4.3832   -0.9662   -3.8057 C   0  0  0  0  0  0  0  0  0  0  0  0
    3.8032    0.0858   -4.0621 O   0  0  0  0  0  0  0  0  0  0  0  0
    4.7247   -1.8737   -4.9846 C   0  0  0  0  0  0  0  0  0  0  0  0
    5.3448   -2.9111   -4.8732 O   0  0  0  0  0  0  0  0  0  0  0  0
    4.2433   -1.3556   -6.1304 O   0  0  0  0  0  0  0  0  0  0  0  0
    0.6013    0.6709    1.0328 H   0  0  0  0  0  0  0  0  0  0  0  0
    0.4160    0.3695   -0.5572 H   0  0  0  0  0  0  0  0  0  0  0  0
    2.8528   -0.1095    1.0139 H   0  0  0  0  0  0  0  0  0  0  0  0
    2.5862    1.2366   -0.1042 H   0  0  0  0  0  0  0  0  0  0  0  0
    2.2556   -0.4156   -1.9785 H   0  0  0  0  0  0  0  0  0  0  0  0
    2.5616   -1.7418   -0.8577 H   0  0  0  0  0  0  0  0  0  0  0  0
    4.8399   -0.8341   -0.3849 H   0  0  0  0  0  0  0  0  0  0  0  0
    4.5602    0.4942   -1.5100 H   0  0  0  0  0  0  0  0  0  0  0  0
    4.4541   -2.4716   -2.2959 H   0  0  0  0  0  0  0  0  0  0  0  0
    5.9069   -1.4557   -2.4280 H   0  0  0  0  0  0  0  0  0  0  0  0
    3.7913   -0.5008   -5.9311 H   0  0  0  0  0  0  0  0  0  0  0  0
  1  2  1  0  0  0  0
  1 11  1  0  0  0  0
  1 12  1  0  0  0  0
  2  3  1  0  0  0  0
  2 13  1  0  0  0  0
  2 14  1  0  0  0  0
  3  4  1  0  0  0  0
  3 15  1  0  0  0  0
  3 16  1  0  0  0  0
  4  5  1  0  0  0  0
  4 17  1  0  0  0  0
  4 18  1  0  0  0  0
  5  6  1  0  0  0  0
  5 19  1  0  0  0  0
  5 20  1  0  0  0  0
  6  7  2  0  0  0  0
  6  8  1  0  0  0  0
  8  9  2  0  0  0  0
  8 10  1  0  0  0  0
 10 21  1  0  0  0  0
M  END
$$$$
