CHEBI:17836
 OpenBabel04242417413D

 16 16  0  0  0  0  0  0  0  0999 V2000
    2.3533   -0.0057   -0.1615 N   0  0  0  0  0  0  0  0  0  0  0  0
    0.9550    0.0038   -0.0193 C   0  0  0  0  0  0  0  0  0  0  0  0
    0.2389   -1.1947   -0.0215 C   0  0  0  0  0  0  0  0  0  0  0  0
   -1.1602   -1.1898    0.0175 C   0  0  0  0  0  0  0  0  0  0  0  0
   -1.8787    0.0150    0.0122 C   0  0  0  0  0  0  0  0  0  0  0  0
   -3.3947    0.0221    0.0623 C   0  0  0  0  0  0  0  0  0  0  0  0
   -3.9705    1.1560    0.0403 O   0  0  0  0  0  0  0  0  0  0  0  0
   -3.9780   -1.1064    0.1273 O   0  5  0  0  0  0  0  0  0  0  0  0
   -1.1516    1.2126   -0.0586 C   0  0  0  0  0  0  0  0  0  0  0  0
    0.2475    1.2049   -0.0972 C   0  0  0  0  0  0  0  0  0  0  0  0
    2.7724   -0.8385    0.2384 H   0  0  0  0  0  0  0  0  0  0  0  0
    2.7785    0.8475    0.1854 H   0  0  0  0  0  0  0  0  0  0  0  0
    0.7559   -2.1483   -0.0458 H   0  0  0  0  0  0  0  0  0  0  0  0
   -1.7070   -2.1311    0.0414 H   0  0  0  0  0  0  0  0  0  0  0  0
   -1.6916    2.1574   -0.0944 H   0  0  0  0  0  0  0  0  0  0  0  0
    0.7714    2.1514   -0.1815 H   0  0  0  0  0  0  0  0  0  0  0  0
  1  2  1  0  0  0  0
  1 11  1  0  0  0  0
  1 12  1  0  0  0  0
  2  3  1  0  0  0  0
  2 10  2  0  0  0  0
  3  4  2  0  0  0  0
  3 13  1  0  0  0  0
  4  5  1  0  0  0  0
  4 14  1  0  0  0  0
  5  6  1  0  0  0  0
  5  9  2  0  0  0  0
  6  7  2  0  0  0  0
  6  8  1  0  0  0  0
  9 10  1  0  0  0  0
  9 15  1  0  0  0  0
 10 16  1  0  0  0  0
M  CHG  1   8  -1
M  END
$$$$
