CHEBI:17742
 OpenBabel04242417123D

 15 14  0  0  0  0  0  0  0  0999 V2000
    1.3902    0.0718    0.8915 O   0  0  0  0  0  0  0  0  0  0  0  0
    1.0443   -0.4295    2.0132 C   0  0  0  0  0  0  0  0  0  0  0  0
   -0.0686   -0.2232    2.6026 O   0  5  0  0  0  0  0  0  0  0  0  0
    2.0770   -1.3516    2.6955 C   0  0  0  0  0  0  0  0  0  0  0  0
    1.8384   -1.6924    3.8564 O   0  0  0  0  0  0  0  0  0  0  0  0
    3.3375   -1.7016    1.9252 C   0  0  0  0  0  0  0  0  0  0  0  0
    4.1159   -2.8540    2.5460 C   0  0  0  0  0  0  0  0  0  0  0  0
    3.5417   -4.1215    2.1141 O   0  0  0  0  0  0  0  0  0  0  0  0
    5.6062   -2.8067    2.0758 C   0  0  0  0  0  0  0  0  0  0  0  0
    5.9441   -3.8174    1.3743 O   0  0  0  0  0  0  0  0  0  0  0  0
    6.3095   -1.8353    2.4665 O   0  5  0  0  0  0  0  0  0  0  0  0
    3.9417   -0.7885    1.8862 H   0  0  0  0  0  0  0  0  0  0  0  0
    3.0430   -1.9698    0.9038 H   0  0  0  0  0  0  0  0  0  0  0  0
    4.0987   -2.8403    3.6406 H   0  0  0  0  0  0  0  0  0  0  0  0
    4.2966   -4.5164    1.6121 H   0  0  0  0  0  0  0  0  0  0  0  0
  1  2  2  0  0  0  0
  2  3  1  0  0  0  0
  2  4  1  0  0  0  0
  4  5  2  0  0  0  0
  4  6  1  0  0  0  0
  6  7  1  0  0  0  0
  6 12  1  0  0  0  0
  6 13  1  0  0  0  0
  7  8  1  0  0  0  0
  7  9  1  0  0  0  0
  7 14  1  0  0  0  0
  8 15  1  0  0  0  0
  9 10  2  0  0  0  0
  9 11  1  0  0  0  0
M  CHG  2   3  -1  11  -1
M  END
$$$$
