CHEBI:15816
 OpenBabel04242413183D

 26 25  0  0  1  0  0  0  0  0999 V2000
    2.3940    3.3536    2.7534 N   0  0  0  0  0  0  0  0  0  0  0  0
    3.2867    3.2349    3.6658 C   0  0  0  0  0  0  0  0  0  0  0  0
    3.2454    3.8935    4.8399 N   0  0  0  0  0  0  0  0  0  0  0  0
    4.3704    2.4300    3.5941 N   0  0  0  0  0  0  0  0  0  0  0  0
    4.6591    1.6275    2.4193 C   0  0  0  0  0  0  0  0  0  0  0  0
    5.1674    2.4913    1.2641 C   0  0  0  0  0  0  0  0  0  0  0  0
    5.5223    1.6754    0.0160 C   0  0  0  0  0  0  0  0  0  0  0  0
    4.3741    0.8398   -0.5644 C   0  0  1  0  0  0  0  0  0  0  0  0
    3.2043    1.6742   -0.9629 N   0  0  0  0  0  0  0  0  0  0  0  0
    4.8479    0.0507   -1.8004 C   0  0  0  0  0  0  0  0  0  0  0  0
    5.9182   -0.5246   -1.9083 O   0  0  0  0  0  0  0  0  0  0  0  0
    3.8888    0.0386   -2.7644 O   0  0  0  0  0  0  0  0  0  0  0  0
    1.6985    4.0399    3.0510 H   0  0  0  0  0  0  0  0  0  0  0  0
    2.3486    4.3054    5.0634 H   0  0  0  0  0  0  0  0  0  0  0  0
    3.5738    3.3227    5.6112 H   0  0  0  0  0  0  0  0  0  0  0  0
    5.1940    2.8123    4.0434 H   0  0  0  0  0  0  0  0  0  0  0  0
    3.7611    1.0681    2.1375 H   0  0  0  0  0  0  0  0  0  0  0  0
    5.4219    0.8874    2.6860 H   0  0  0  0  0  0  0  0  0  0  0  0
    6.0619    3.0379    1.5895 H   0  0  0  0  0  0  0  0  0  0  0  0
    4.4311    3.2589    1.0006 H   0  0  0  0  0  0  0  0  0  0  0  0
    6.3618    1.0118    0.2607 H   0  0  0  0  0  0  0  0  0  0  0  0
    5.9020    2.3621   -0.7526 H   0  0  0  0  0  0  0  0  0  0  0  0
    4.0270    0.0866    0.1506 H   0  0  0  0  0  0  0  0  0  0  0  0
    3.5551    2.5372   -1.3935 H   0  0  0  0  0  0  0  0  0  0  0  0
    2.7481    2.0094   -0.1032 H   0  0  0  0  0  0  0  0  0  0  0  0
    3.1449    0.5844   -2.4021 H   0  0  0  0  0  0  0  0  0  0  0  0
  1  2  2  0  0  0  0
  1 13  1  0  0  0  0
  2  3  1  0  0  0  0
  2  4  1  0  0  0  0
  3 14  1  0  0  0  0
  3 15  1  0  0  0  0
  4  5  1  0  0  0  0
  4 16  1  0  0  0  0
  5  6  1  0  0  0  0
  5 17  1  0  0  0  0
  5 18  1  0  0  0  0
  6  7  1  0  0  0  0
  6 19  1  0  0  0  0
  6 20  1  0  0  0  0
  7  8  1  0  0  0  0
  7 21  1  0  0  0  0
  7 22  1  0  0  0  0
  8  9  1  0  0  0  0
  8 10  1  0  0  0  0
  8 23  1  1  0  0  0
  9 24  1  0  0  0  0
  9 25  1  0  0  0  0
 10 11  2  0  0  0  0
 10 12  1  0  0  0  0
 12 26  1  0  0  0  0
M  END
$$$$
