CHEBI:8048
 OpenBabel04242411133D

 67 70  0  0  1  0  0  0  0  0999 V2000
    8.1573   -0.0931    0.4581 C   0  0  0  0  0  0  0  0  0  0  0  0
    7.4037   -0.3835   -0.8146 C   0  0  0  0  0  0  0  0  0  0  0  0
    7.2917   -1.8476   -1.1411 C   0  0  0  0  0  0  0  0  0  0  0  0
    6.9008    0.6229   -1.5577 C   0  0  0  0  0  0  0  0  0  0  0  0
    6.1425    0.5354   -2.8561 C   0  0  0  0  0  0  0  0  0  0  0  0
    6.8199    1.3074   -3.9761 C   0  0  0  0  0  0  0  0  0  0  0  0
    6.5187    2.6739   -4.1958 C   0  0  0  0  0  0  0  0  0  0  0  0
    5.6060    3.2458   -3.3421 O   0  0  0  0  0  0  0  0  0  0  0  0
    5.3149    4.6489   -3.4903 C   0  0  2  0  0  0  0  0  0  0  0  0
    6.4833    5.4566   -3.3130 O   0  0  0  0  0  0  0  0  0  0  0  0
    6.2087    6.8497   -3.4986 C   0  0  2  0  0  0  0  0  0  0  0  0
    7.5301    7.6273   -3.5211 C   0  0  0  0  0  0  0  0  0  0  0  0
    7.3373    8.9962   -3.8597 O   0  0  0  0  0  0  0  0  0  0  0  0
    5.2789    7.3266   -2.3751 C   0  0  1  0  0  0  0  0  0  0  0  0
    4.9795    8.7205   -2.4971 O   0  0  0  0  0  0  0  0  0  0  0  0
    3.9836    6.5124   -2.4292 C   0  0  2  0  0  0  0  0  0  0  0  0
    3.1577    6.8822   -1.3139 O   0  0  0  0  0  0  0  0  0  0  0  0
    4.2727    5.0080   -2.4076 C   0  0  1  0  0  0  0  0  0  0  0  0
    3.0321    4.3091   -2.6018 O   0  0  0  0  0  0  0  0  0  0  0  0
    7.1563    3.3631   -5.2324 C   0  0  0  0  0  0  0  0  0  0  0  0
    8.1233    2.7355   -6.0080 C   0  0  0  0  0  0  0  0  0  0  0  0
    8.7264    3.5073   -6.9645 O   0  0  0  0  0  0  0  0  0  0  0  0
    8.4468    1.3986   -5.7841 C   0  0  0  0  0  0  0  0  0  0  0  0
    7.7833    0.6731   -4.7930 C   0  0  0  0  0  0  0  0  0  0  0  0
    8.0648   -0.6483   -4.5448 O   0  0  0  0  0  0  0  0  0  0  0  0
    8.5934   -1.3744   -5.6751 C   0  0  2  0  0  0  0  0  0  0  0  0
    8.7760   -2.8200   -5.2143 C   0  0  0  0  0  0  0  0  0  0  0  0
    7.6447   -3.5474   -4.7953 C   0  0  0  0  0  0  0  0  0  0  0  0
    7.7502   -4.8818   -4.3890 C   0  0  0  0  0  0  0  0  0  0  0  0
    8.9926   -5.5029   -4.3990 C   0  0  0  0  0  0  0  0  0  0  0  0
    9.1461   -6.8031   -4.0204 O   0  0  0  0  0  0  0  0  0  0  0  0
   10.1242   -4.8110   -4.8034 C   0  0  0  0  0  0  0  0  0  0  0  0
   10.0173   -3.4779   -5.2078 C   0  0  0  0  0  0  0  0  0  0  0  0
    9.8541   -0.6826   -6.2081 C   0  0  1  0  0  0  0  0  0  0  0  0
   10.3488   -1.3041   -7.3991 O   0  0  0  0  0  0  0  0  0  0  0  0
    9.5071    0.7440   -6.5625 C   0  0  0  0  0  0  0  0  0  0  0  0
   10.1042    1.3657   -7.4447 O   0  0  0  0  0  0  0  0  0  0  0  0
    7.6381   -0.5348    1.3152 H   0  0  0  0  0  0  0  0  0  0  0  0
    8.2574    0.9808    0.6476 H   0  0  0  0  0  0  0  0  0  0  0  0
    9.1660   -0.5160    0.4064 H   0  0  0  0  0  0  0  0  0  0  0  0
    6.5801   -2.0621   -1.9406 H   0  0  0  0  0  0  0  0  0  0  0  0
    6.9515   -2.4046   -0.2611 H   0  0  0  0  0  0  0  0  0  0  0  0
    8.2681   -2.2418   -1.4403 H   0  0  0  0  0  0  0  0  0  0  0  0
    7.0454    1.6436   -1.2020 H   0  0  0  0  0  0  0  0  0  0  0  0
    5.1310    0.9283   -2.6925 H   0  0  0  0  0  0  0  0  0  0  0  0
    5.9773   -0.4960   -3.1808 H   0  0  0  0  0  0  0  0  0  0  0  0
    4.8760    4.8042   -4.4860 H   0  0  0  0  0  0  0  0  0  0  0  0
    5.7219    7.0068   -4.4715 H   0  0  0  0  0  0  0  0  0  0  0  0
    8.0397    7.5679   -2.5537 H   0  0  0  0  0  0  0  0  0  0  0  0
    8.2077    7.1890   -4.2622 H   0  0  0  0  0  0  0  0  0  0  0  0
    6.5614    9.3112   -3.3477 H   0  0  0  0  0  0  0  0  0  0  0  0
    5.7576    7.1838   -1.3980 H   0  0  0  0  0  0  0  0  0  0  0  0
    4.2467    8.8772   -1.8643 H   0  0  0  0  0  0  0  0  0  0  0  0
    3.4064    6.7801   -3.3234 H   0  0  0  0  0  0  0  0  0  0  0  0
    2.4131    6.2469   -1.3227 H   0  0  0  0  0  0  0  0  0  0  0  0
    4.6392    4.7173   -1.4153 H   0  0  0  0  0  0  0  0  0  0  0  0
    3.2581    3.3594   -2.6420 H   0  0  0  0  0  0  0  0  0  0  0  0
    6.9530    4.4062   -5.4502 H   0  0  0  0  0  0  0  0  0  0  0  0
    9.4167    2.9690   -7.4131 H   0  0  0  0  0  0  0  0  0  0  0  0
    7.8299   -1.4005   -6.4680 H   0  0  0  0  0  0  0  0  0  0  0  0
    6.6661   -3.0708   -4.7856 H   0  0  0  0  0  0  0  0  0  0  0  0
    6.8583   -5.4143   -4.0751 H   0  0  0  0  0  0  0  0  0  0  0  0
    8.2746   -7.1646   -3.7921 H   0  0  0  0  0  0  0  0  0  0  0  0
   11.0906   -5.3076   -4.8148 H   0  0  0  0  0  0  0  0  0  0  0  0
   10.9275   -2.9811   -5.5332 H   0  0  0  0  0  0  0  0  0  0  0  0
   10.6554   -0.6489   -5.4608 H   0  0  0  0  0  0  0  0  0  0  0  0
   10.9125   -0.6397   -7.8448 H   0  0  0  0  0  0  0  0  0  0  0  0
  1  2  1  0  0  0  0
  1 38  1  0  0  0  0
  1 39  1  0  0  0  0
  1 40  1  0  0  0  0
  2  3  1  0  0  0  0
  2  4  2  0  0  0  0
  3 41  1  0  0  0  0
  3 42  1  0  0  0  0
  3 43  1  0  0  0  0
  4  5  1  0  0  0  0
  4 44  1  0  0  0  0
  5  6  1  0  0  0  0
  5 45  1  0  0  0  0
  5 46  1  0  0  0  0
  6  7  1  0  0  0  0
  6 24  2  0  0  0  0
  7  8  1  0  0  0  0
  7 20  2  0  0  0  0
  8  9  1  0  0  0  0
  9 10  1  0  0  0  0
  9 18  1  0  0  0  0
  9 47  1  6  0  0  0
 10 11  1  0  0  0  0
 11 14  1  0  0  0  0
 11 12  1  0  0  0  0
 11 48  1  6  0  0  0
 12 13  1  0  0  0  0
 12 49  1  0  0  0  0
 12 50  1  0  0  0  0
 13 51  1  0  0  0  0
 14 15  1  0  0  0  0
 14 16  1  0  0  0  0
 14 52  1  1  0  0  0
 15 53  1  0  0  0  0
 16 17  1  0  0  0  0
 16 18  1  0  0  0  0
 16 54  1  6  0  0  0
 17 55  1  0  0  0  0
 18 19  1  0  0  0  0
 18 56  1  1  0  0  0
 19 57  1  0  0  0  0
 20 21  1  0  0  0  0
 20 58  1  0  0  0  0
 21 22  1  0  0  0  0
 21 23  2  0  0  0  0
 22 59  1  0  0  0  0
 23 24  1  0  0  0  0
 23 36  1  0  0  0  0
 24 25  1  0  0  0  0
 25 26  1  0  0  0  0
 26 27  1  0  0  0  0
 26 34  1  0  0  0  0
 26 60  1  6  0  0  0
 27 28  1  0  0  0  0
 27 33  2  0  0  0  0
 28 29  2  0  0  0  0
 28 61  1  0  0  0  0
 29 30  1  0  0  0  0
 29 62  1  0  0  0  0
 30 31  1  0  0  0  0
 30 32  2  0  0  0  0
 31 63  1  0  0  0  0
 32 33  1  0  0  0  0
 32 64  1  0  0  0  0
 33 65  1  0  0  0  0
 34 35  1  0  0  0  0
 34 36  1  0  0  0  0
 34 66  1  1  0  0  0
 35 67  1  0  0  0  0
 36 37  2  0  0  0  0
M  END
$$$$
