CHEBI:16875
 OpenBabel04242415293D

 20 21  0  0  0  0  0  0  0  0999 V2000
    1.6574   -0.0921    1.1958 O   0  0  0  0  0  0  0  0  0  0  0  0
    2.5458    0.0902    0.3087 C   0  0  0  0  0  0  0  0  0  0  0  0
    3.0170   -0.7557   -0.5058 O   0  5  0  0  0  0  0  0  0  0  0  0
    3.0747    1.4557    0.2393 C   0  0  0  0  0  0  0  0  0  0  0  0
    4.0339    1.9692   -0.6029 C   0  0  0  0  0  0  0  0  0  0  0  0
    4.1944    3.3450   -0.2739 C   0  0  0  0  0  0  0  0  0  0  0  0
    5.0140    4.3765   -0.7779 C   0  0  0  0  0  0  0  0  0  0  0  0
    4.9109    5.6443   -0.2058 C   0  0  0  0  0  0  0  0  0  0  0  0
    5.6797    6.6900   -0.6506 O   0  0  0  0  0  0  0  0  0  0  0  0
    4.0236    5.8950    0.8380 C   0  0  0  0  0  0  0  0  0  0  0  0
    3.9540    7.1549    1.3710 O   0  0  0  0  0  0  0  0  0  0  0  0
    3.2028    4.8994    1.3566 C   0  0  0  0  0  0  0  0  0  0  0  0
    3.3122    3.6285    0.7764 C   0  0  0  0  0  0  0  0  0  0  0  0
    2.6472    2.4588    1.0640 N   0  0  0  0  0  0  0  0  0  0  0  0
    4.5512    1.4014   -1.3652 H   0  0  0  0  0  0  0  0  0  0  0  0
    5.6978    4.1623   -1.5899 H   0  0  0  0  0  0  0  0  0  0  0  0
    6.2346    6.3460   -1.3717 H   0  0  0  0  0  0  0  0  0  0  0  0
    4.6089    7.6617    0.8522 H   0  0  0  0  0  0  0  0  0  0  0  0
    2.5142    5.0988    2.1684 H   0  0  0  0  0  0  0  0  0  0  0  0
    1.9381    2.3100    1.7709 H   0  0  0  0  0  0  0  0  0  0  0  0
  1  2  2  0  0  0  0
  2  3  1  0  0  0  0
  2  4  1  0  0  0  0
  4  5  2  0  0  0  0
  4 14  1  0  0  0  0
  5  6  1  0  0  0  0
  5 15  1  0  0  0  0
  6  7  1  0  0  0  0
  6 13  2  0  0  0  0
  7  8  2  0  0  0  0
  7 16  1  0  0  0  0
  8  9  1  0  0  0  0
  8 10  1  0  0  0  0
  9 17  1  0  0  0  0
 10 11  1  0  0  0  0
 10 12  2  0  0  0  0
 11 18  1  0  0  0  0
 12 13  1  0  0  0  0
 12 19  1  0  0  0  0
 13 14  1  0  0  0  0
 14 20  1  0  0  0  0
M  CHG  1   3  -1
M  END
$$$$
