CHEBI:17173
 OpenBabel04242415583D

 20 19  0  0  1  0  0  0  0  0999 V2000
    5.9069    1.8572    2.6450 O   0  0  0  0  0  0  0  0  0  0  0  0
    6.0749    1.9261    1.4237 C   0  0  0  0  0  0  0  0  0  0  0  0
    7.2077    2.7625    0.8439 C   0  0  0  0  0  0  0  0  0  0  0  0
    7.6371    3.7550    1.7669 O   0  0  0  0  0  0  0  0  0  0  0  0
    5.1826    1.2156    0.4137 C   0  0  2  0  0  0  0  0  0  0  0  0
    6.0006    0.3683   -0.4049 O   0  0  0  0  0  0  0  0  0  0  0  0
    4.1000    0.3586    1.0901 C   0  0  2  0  0  0  0  0  0  0  0  0
    3.4537   -0.3991    0.0403 O   0  0  0  0  0  0  0  0  0  0  0  0
    3.0322    1.1707    1.8291 C   0  0  0  0  0  0  0  0  0  0  0  0
    2.4065    2.0613    0.9027 O   0  0  0  0  0  0  0  0  0  0  0  0
    6.8685    3.2693   -0.0631 H   0  0  0  0  0  0  0  0  0  0  0  0
    8.0514    2.1082    0.6091 H   0  0  0  0  0  0  0  0  0  0  0  0
    7.5745    3.3461    2.6526 H   0  0  0  0  0  0  0  0  0  0  0  0
    4.7315    1.9606   -0.2499 H   0  0  0  0  0  0  0  0  0  0  0  0
    5.4205   -0.3804   -0.6612 H   0  0  0  0  0  0  0  0  0  0  0  0
    4.5549   -0.3741    1.7657 H   0  0  0  0  0  0  0  0  0  0  0  0
    2.7844    0.2080   -0.3397 H   0  0  0  0  0  0  0  0  0  0  0  0
    3.4419    1.7512    2.6586 H   0  0  0  0  0  0  0  0  0  0  0  0
    2.2531    0.5038    2.2127 H   0  0  0  0  0  0  0  0  0  0  0  0
    1.7730    2.5953    1.4174 H   0  0  0  0  0  0  0  0  0  0  0  0
  1  2  2  0  0  0  0
  2  3  1  0  0  0  0
  3  4  1  0  0  0  0
  3 11  1  0  0  0  0
  3 12  1  0  0  0  0
  4 13  1  0  0  0  0
  5  6  1  0  0  0  0
  5  2  1  0  0  0  0
  5 14  1  1  0  0  0
  6 15  1  0  0  0  0
  7  9  1  0  0  0  0
  7  8  1  0  0  0  0
  7  5  1  0  0  0  0
  7 16  1  1  0  0  0
  8 17  1  0  0  0  0
  9 10  1  0  0  0  0
  9 18  1  0  0  0  0
  9 19  1  0  0  0  0
 10 20  1  0  0  0  0
M  END
$$$$
