CHEBI:3567
 OpenBabel04242410523D

 63 61  0  0  0  0  0  0  0  0999 V2000
   15.9054    5.9152    7.7936 C   0  0  0  0  0  0  0  0  0  0  0  0
   15.4560    5.9469    9.2467 C   0  0  0  0  0  0  0  0  0  0  0  0
   14.1031    5.2697    9.4745 C   0  0  0  0  0  0  0  0  0  0  0  0
   14.1246    3.7582    9.2192 C   0  0  0  0  0  0  0  0  0  0  0  0
   12.7890    3.0716    9.5351 C   0  0  0  0  0  0  0  0  0  0  0  0
   11.6540    3.5491    8.6274 C   0  0  0  0  0  0  0  0  0  0  0  0
   10.3314    2.8411    8.9296 C   0  0  0  0  0  0  0  0  0  0  0  0
    9.1773    3.3344    8.0466 C   0  0  0  0  0  0  0  0  0  0  0  0
    8.8534    4.8160    8.2593 C   0  0  0  0  0  0  0  0  0  0  0  0
    7.6554    5.2708    7.4244 C   0  0  0  0  0  0  0  0  0  0  0  0
    7.4157    6.7730    7.6065 C   0  0  0  0  0  0  0  0  0  0  0  0
    6.1976    7.2993    6.8446 C   0  0  0  0  0  0  0  0  0  0  0  0
    6.3587    7.2176    5.3262 C   0  0  0  0  0  0  0  0  0  0  0  0
    5.1682    7.8492    4.6016 C   0  0  0  0  0  0  0  0  0  0  0  0
    5.3265    7.7243    3.0832 C   0  0  0  0  0  0  0  0  0  0  0  0
    4.1083    8.3017    2.3586 C   0  0  0  0  0  0  0  0  0  0  0  0
    4.2020    8.1658    0.8182 N   0  3  0  0  0  0  0  0  0  0  0  0
    5.4320    8.8479    0.2668 C   0  0  0  0  0  0  0  0  0  0  0  0
    4.1424    6.7126    0.3974 C   0  0  0  0  0  0  0  0  0  0  0  0
    2.9599    8.8716    0.2416 C   0  0  0  0  0  0  0  0  0  0  0  0
    0.6591    9.5611    3.0526 Br  0  5  0  0  0  0  0  0  0  0  0  0
   16.8091    6.5194    7.6659 H   0  0  0  0  0  0  0  0  0  0  0  0
   15.1319    6.3201    7.1329 H   0  0  0  0  0  0  0  0  0  0  0  0
   16.1386    4.8969    7.4692 H   0  0  0  0  0  0  0  0  0  0  0  0
   15.3739    6.9945    9.5608 H   0  0  0  0  0  0  0  0  0  0  0  0
   16.2212    5.4840    9.8798 H   0  0  0  0  0  0  0  0  0  0  0  0
   13.3621    5.7569    8.8316 H   0  0  0  0  0  0  0  0  0  0  0  0
   13.7930    5.4523   10.5107 H   0  0  0  0  0  0  0  0  0  0  0  0
   14.9039    3.3019    9.8418 H   0  0  0  0  0  0  0  0  0  0  0  0
   14.3896    3.5534    8.1760 H   0  0  0  0  0  0  0  0  0  0  0  0
   12.5253    3.2486   10.5848 H   0  0  0  0  0  0  0  0  0  0  0  0
   12.9163    1.9887    9.4169 H   0  0  0  0  0  0  0  0  0  0  0  0
   11.9261    3.3851    7.5778 H   0  0  0  0  0  0  0  0  0  0  0  0
   11.5236    4.6246    8.7666 H   0  0  0  0  0  0  0  0  0  0  0  0
   10.0674    2.9822    9.9846 H   0  0  0  0  0  0  0  0  0  0  0  0
   10.4550    1.7623    8.7743 H   0  0  0  0  0  0  0  0  0  0  0  0
    8.2874    2.7338    8.2711 H   0  0  0  0  0  0  0  0  0  0  0  0
    9.4225    3.1568    6.9923 H   0  0  0  0  0  0  0  0  0  0  0  0
    9.7156    5.4310    7.9805 H   0  0  0  0  0  0  0  0  0  0  0  0
    8.6528    4.9991    9.3217 H   0  0  0  0  0  0  0  0  0  0  0  0
    6.7608    4.7117    7.7222 H   0  0  0  0  0  0  0  0  0  0  0  0
    7.8492    5.0438    6.3704 H   0  0  0  0  0  0  0  0  0  0  0  0
    8.3081    7.3298    7.2940 H   0  0  0  0  0  0  0  0  0  0  0  0
    7.2717    6.9846    8.6733 H   0  0  0  0  0  0  0  0  0  0  0  0
    6.0408    8.3463    7.1322 H   0  0  0  0  0  0  0  0  0  0  0  0
    5.3023    6.7476    7.1551 H   0  0  0  0  0  0  0  0  0  0  0  0
    6.4488    6.1710    5.0158 H   0  0  0  0  0  0  0  0  0  0  0  0
    7.2827    7.7265    5.0253 H   0  0  0  0  0  0  0  0  0  0  0  0
    5.0847    8.9070    4.8782 H   0  0  0  0  0  0  0  0  0  0  0  0
    4.2414    7.3556    4.9185 H   0  0  0  0  0  0  0  0  0  0  0  0
    5.4607    6.6687    2.8285 H   0  0  0  0  0  0  0  0  0  0  0  0
    6.2386    8.2534    2.7853 H   0  0  0  0  0  0  0  0  0  0  0  0
    4.0095    9.3687    2.5815 H   0  0  0  0  0  0  0  0  0  0  0  0
    3.2056    7.7642    2.6660 H   0  0  0  0  0  0  0  0  0  0  0  0
    6.3189    8.2867    0.5733 H   0  0  0  0  0  0  0  0  0  0  0  0
    5.4683    9.8717    0.6488 H   0  0  0  0  0  0  0  0  0  0  0  0
    5.3692    8.8500   -0.8260 H   0  0  0  0  0  0  0  0  0  0  0  0
    5.0600    6.2112    0.7140 H   0  0  0  0  0  0  0  0  0  0  0  0
    4.0611    6.6709   -0.6930 H   0  0  0  0  0  0  0  0  0  0  0  0
    3.2681    6.2454    0.8614 H   0  0  0  0  0  0  0  0  0  0  0  0
    2.9511    9.9054    0.5948 H   0  0  0  0  0  0  0  0  0  0  0  0
    2.0731    8.3141    0.5502 H   0  0  0  0  0  0  0  0  0  0  0  0
    3.0379    8.8532   -0.8503 H   0  0  0  0  0  0  0  0  0  0  0  0
  1  2  1  0  0  0  0
  1 22  1  0  0  0  0
  1 23  1  0  0  0  0
  1 24  1  0  0  0  0
  2  3  1  0  0  0  0
  2 25  1  0  0  0  0
  2 26  1  0  0  0  0
  3  4  1  0  0  0  0
  3 27  1  0  0  0  0
  3 28  1  0  0  0  0
  4  5  1  0  0  0  0
  4 29  1  0  0  0  0
  4 30  1  0  0  0  0
  5  6  1  0  0  0  0
  5 31  1  0  0  0  0
  5 32  1  0  0  0  0
  6  7  1  0  0  0  0
  6 33  1  0  0  0  0
  6 34  1  0  0  0  0
  7  8  1  0  0  0  0
  7 35  1  0  0  0  0
  7 36  1  0  0  0  0
  8  9  1  0  0  0  0
  8 37  1  0  0  0  0
  8 38  1  0  0  0  0
  9 10  1  0  0  0  0
  9 39  1  0  0  0  0
  9 40  1  0  0  0  0
 10 11  1  0  0  0  0
 10 41  1  0  0  0  0
 10 42  1  0  0  0  0
 11 12  1  0  0  0  0
 11 43  1  0  0  0  0
 11 44  1  0  0  0  0
 12 13  1  0  0  0  0
 12 45  1  0  0  0  0
 12 46  1  0  0  0  0
 13 14  1  0  0  0  0
 13 47  1  0  0  0  0
 13 48  1  0  0  0  0
 14 15  1  0  0  0  0
 14 49  1  0  0  0  0
 14 50  1  0  0  0  0
 15 16  1  0  0  0  0
 15 51  1  0  0  0  0
 15 52  1  0  0  0  0
 16 17  1  0  0  0  0
 16 53  1  0  0  0  0
 16 54  1  0  0  0  0
 17 18  1  0  0  0  0
 17 19  1  0  0  0  0
 17 20  1  0  0  0  0
 18 55  1  0  0  0  0
 18 56  1  0  0  0  0
 18 57  1  0  0  0  0
 19 58  1  0  0  0  0
 19 59  1  0  0  0  0
 19 60  1  0  0  0  0
 20 61  1  0  0  0  0
 20 62  1  0  0  0  0
 20 63  1  0  0  0  0
M  CHG  2  17   1  21  -1
M  END
$$$$
