CHEBI:15374
 OpenBabel04242411473D

 33 34  0  0  0  0  0  0  0  0999 V2000
    1.7652   -2.5969    2.9347 C   0  0  0  0  0  0  0  0  0  0  0  0
    2.0460   -2.8521    1.4587 C   0  0  0  0  0  0  0  0  0  0  0  0
    0.7666   -2.9095    0.8031 O   0  0  0  0  0  0  0  0  0  0  0  0
    2.8887   -1.7785    0.7287 C   0  0  0  0  0  0  0  0  0  0  0  0
    2.2439   -0.4979    0.8912 O   0  0  0  0  0  0  0  0  0  0  0  0
    4.3879   -1.6508    1.1176 C   0  0  0  0  0  0  0  0  0  0  0  0
    5.1308   -3.0132    0.9504 C   0  0  0  0  0  0  0  0  0  0  0  0
    5.1637   -3.7278    2.2120 N   0  0  0  0  0  0  0  0  0  0  0  0
    5.4432   -3.0387    3.3742 C   0  0  0  0  0  0  0  0  0  0  0  0
    5.6024   -3.6828    4.4840 N   0  0  0  0  0  0  0  0  0  0  0  0
    5.8429   -2.9968    5.6299 C   0  0  0  0  0  0  0  0  0  0  0  0
    6.1106   -3.7487    6.7199 N   0  0  0  0  0  0  0  0  0  0  0  0
    5.8463   -1.7141    5.7563 N   0  0  0  0  0  0  0  0  0  0  0  0
    5.5191   -0.9017    4.7018 C   0  0  0  0  0  0  0  0  0  0  0  0
    5.2911    0.2978    4.8662 O   0  0  0  0  0  0  0  0  0  0  0  0
    5.5959   -1.5061    3.2758 C   0  0  0  0  0  0  0  0  0  0  0  0
    6.8232   -1.1920    2.6419 O   0  0  0  0  0  0  0  0  0  0  0  0
    4.4977   -0.9709    2.4403 N   0  0  0  0  0  0  0  0  0  0  0  0
    1.0875   -3.3655    3.3241 H   0  0  0  0  0  0  0  0  0  0  0  0
    1.2584   -1.6386    3.0889 H   0  0  0  0  0  0  0  0  0  0  0  0
    2.6708   -2.6180    3.5417 H   0  0  0  0  0  0  0  0  0  0  0  0
    2.4963   -3.8415    1.3384 H   0  0  0  0  0  0  0  0  0  0  0  0
    0.4779   -1.9792    0.7121 H   0  0  0  0  0  0  0  0  0  0  0  0
    2.8348   -1.9883   -0.3473 H   0  0  0  0  0  0  0  0  0  0  0  0
    2.5374   -0.1780    1.7683 H   0  0  0  0  0  0  0  0  0  0  0  0
    4.8332   -0.9608    0.3870 H   0  0  0  0  0  0  0  0  0  0  0  0
    6.1628   -2.8305    0.6280 H   0  0  0  0  0  0  0  0  0  0  0  0
    4.6598   -3.6316    0.1792 H   0  0  0  0  0  0  0  0  0  0  0  0
    5.3066   -4.7308    2.2171 H   0  0  0  0  0  0  0  0  0  0  0  0
    6.4348   -4.6859    6.5282 H   0  0  0  0  0  0  0  0  0  0  0  0
    6.5673   -3.2574    7.4761 H   0  0  0  0  0  0  0  0  0  0  0  0
    7.5242   -1.4838    3.2515 H   0  0  0  0  0  0  0  0  0  0  0  0
    4.7315    0.0144    2.2971 H   0  0  0  0  0  0  0  0  0  0  0  0
  1  2  1  0  0  0  0
  1 19  1  0  0  0  0
  1 20  1  0  0  0  0
  1 21  1  0  0  0  0
  2  3  1  0  0  0  0
  2  4  1  0  0  0  0
  2 22  1  0  0  0  0
  3 23  1  0  0  0  0
  4  5  1  0  0  0  0
  4  6  1  0  0  0  0
  4 24  1  0  0  0  0
  5 25  1  0  0  0  0
  6  7  1  0  0  0  0
  6 18  1  0  0  0  0
  6 26  1  0  0  0  0
  7  8  1  0  0  0  0
  7 27  1  0  0  0  0
  7 28  1  0  0  0  0
  8  9  1  0  0  0  0
  8 29  1  0  0  0  0
  9 10  2  0  0  0  0
  9 16  1  0  0  0  0
 10 11  1  0  0  0  0
 11 12  1  0  0  0  0
 11 13  2  0  0  0  0
 12 30  1  0  0  0  0
 12 31  1  0  0  0  0
 13 14  1  0  0  0  0
 14 15  2  0  0  0  0
 14 16  1  0  0  0  0
 16 17  1  0  0  0  0
 16 18  1  0  0  0  0
 17 32  1  0  0  0  0
 18 33  1  0  0  0  0
M  END
$$$$
