CHEBI:18139
 OpenBabel04242423353D

 13 12  0  0  0  0  0  0  0  0999 V2000
    0.9971   -0.0805   -0.0557 C   0  0  0  0  0  0  0  0  0  0  0  0
    2.4593   -0.0752   -0.0309 N   0  0  0  0  0  0  0  0  0  0  0  0
    2.9587    1.2381    0.3749 C   0  0  0  0  0  0  0  0  0  0  0  0
    2.9587   -1.1126    0.8710 C   0  0  0  0  0  0  0  0  0  0  0  0
    0.6218    0.6685   -0.7619 H   0  0  0  0  0  0  0  0  0  0  0  0
    0.5646    0.1275    0.9298 H   0  0  0  0  0  0  0  0  0  0  0  0
    0.6217   -1.0510   -0.3991 H   0  0  0  0  0  0  0  0  0  0  0  0
    2.6192    2.0112   -0.3235 H   0  0  0  0  0  0  0  0  0  0  0  0
    4.0541    1.2562    0.3543 H   0  0  0  0  0  0  0  0  0  0  0  0
    2.6281    1.5145    1.3827 H   0  0  0  0  0  0  0  0  0  0  0  0
    2.6192   -2.1020    0.5445 H   0  0  0  0  0  0  0  0  0  0  0  0
    2.6281   -0.9582    1.9046 H   0  0  0  0  0  0  0  0  0  0  0  0
    4.0541   -1.1375    0.8595 H   0  0  0  0  0  0  0  0  0  0  0  0
  1  2  1  0  0  0  0
  1  5  1  0  0  0  0
  1  6  1  0  0  0  0
  1  7  1  0  0  0  0
  2  3  1  0  0  0  0
  2  4  1  0  0  0  0
  3  8  1  0  0  0  0
  3  9  1  0  0  0  0
  3 10  1  0  0  0  0
  4 11  1  0  0  0  0
  4 12  1  0  0  0  0
  4 13  1  0  0  0  0
M  END
$$$$
