CHEBI:17536
 OpenBabel04242416463D

 19 18  0  0  0  0  0  0  0  0999 V2000
    0.5455    2.1032   -0.1466 N   0  0  0  0  0  0  0  0  0  0  0  0
    1.7373    2.3900    0.4400 C   0  0  0  0  0  0  0  0  0  0  0  0
    2.0498    3.5422    0.6981 O   0  0  0  0  0  0  0  0  0  0  0  0
    2.4467    1.2687    0.7120 N   0  0  0  0  0  0  0  0  0  0  0  0
    3.8382    1.3011    1.1656 C   0  0  0  0  0  0  0  0  0  0  0  0
    3.8255    1.3009    2.6238 N   0  0  0  0  0  0  0  0  0  0  0  0
    4.8642    1.4910    3.4620 C   0  0  0  0  0  0  0  0  0  0  0  0
    6.0918    1.5754    2.9145 N   0  0  0  0  0  0  0  0  0  0  0  0
    4.7023    1.6077    4.6736 O   0  0  0  0  0  0  0  0  0  0  0  0
    4.6553    0.0936    0.4932 C   0  0  0  0  0  0  0  0  0  0  0  0
    3.9595   -0.6277   -0.2922 O   0  0  0  0  0  0  0  0  0  0  0  0
    5.8812    0.0038    0.8056 O   0  5  0  0  0  0  0  0  0  0  0  0
   -0.0809    2.8926   -0.2034 H   0  0  0  0  0  0  0  0  0  0  0  0
    0.1381    1.2129    0.0966 H   0  0  0  0  0  0  0  0  0  0  0  0
    2.3360    0.5032    0.0486 H   0  0  0  0  0  0  0  0  0  0  0  0
    4.3035    2.2361    0.8304 H   0  0  0  0  0  0  0  0  0  0  0  0
    2.9173    1.3172    3.0529 H   0  0  0  0  0  0  0  0  0  0  0  0
    6.2506    0.9610    2.1029 H   0  0  0  0  0  0  0  0  0  0  0  0
    6.8431    1.5406    3.5841 H   0  0  0  0  0  0  0  0  0  0  0  0
  1  2  1  0  0  0  0
  1 13  1  0  0  0  0
  1 14  1  0  0  0  0
  2  3  2  0  0  0  0
  2  4  1  0  0  0  0
  4  5  1  0  0  0  0
  4 15  1  0  0  0  0
  5  6  1  0  0  0  0
  5 10  1  0  0  0  0
  5 16  1  0  0  0  0
  6  7  1  0  0  0  0
  6 17  1  0  0  0  0
  7  8  1  0  0  0  0
  7  9  2  0  0  0  0
  8 18  1  0  0  0  0
  8 19  1  0  0  0  0
 10 11  2  0  0  0  0
 10 12  1  0  0  0  0
M  CHG  1  12  -1
M  END
$$$$
