CHEBI:17963
 OpenBabel04242423203D

 28 29  0  0  0  0  0  0  0  0999 V2000
    1.0064    0.2349   -0.5865 C   0  0  0  0  0  0  0  0  0  0  0  0
    2.2678    0.0587    0.1318 N   0  0  0  0  0  0  0  0  0  0  0  0
    2.9136   -1.2148   -0.2166 C   0  0  0  0  0  0  0  0  0  0  0  0
    3.7369   -1.1984   -1.4761 C   0  0  0  0  0  0  0  0  0  0  0  0
    4.1192   -0.0689   -2.1027 C   0  0  0  0  0  0  0  0  0  0  0  0
    4.9247   -0.1020   -3.3418 C   0  0  0  0  0  0  0  0  0  0  0  0
    4.6319    0.7559   -4.4116 C   0  0  0  0  0  0  0  0  0  0  0  0
    5.4030    0.7377   -5.5777 C   0  0  0  0  0  0  0  0  0  0  0  0
    6.4824   -0.1351   -5.6879 C   0  0  0  0  0  0  0  0  0  0  0  0
    6.7924   -0.9885   -4.6325 C   0  0  0  0  0  0  0  0  0  0  0  0
    6.0203   -0.9702   -3.4675 C   0  0  0  0  0  0  0  0  0  0  0  0
    3.7215    1.2771   -1.5422 C   0  0  0  0  0  0  0  0  0  0  0  0
    3.1949    1.1780   -0.0982 C   0  0  0  0  0  0  0  0  0  0  0  0
    0.2978   -0.5523   -0.3049 H   0  0  0  0  0  0  0  0  0  0  0  0
    1.1191    0.2128   -1.6756 H   0  0  0  0  0  0  0  0  0  0  0  0
    0.5374    1.1858   -0.3097 H   0  0  0  0  0  0  0  0  0  0  0  0
    2.1638   -2.0129   -0.2842 H   0  0  0  0  0  0  0  0  0  0  0  0
    3.5759   -1.5033    0.6096 H   0  0  0  0  0  0  0  0  0  0  0  0
    4.0141   -2.1742   -1.8656 H   0  0  0  0  0  0  0  0  0  0  0  0
    3.7887    1.4396   -4.3589 H   0  0  0  0  0  0  0  0  0  0  0  0
    5.1575    1.4050   -6.3997 H   0  0  0  0  0  0  0  0  0  0  0  0
    7.0821   -0.1487   -6.5941 H   0  0  0  0  0  0  0  0  0  0  0  0
    7.6378   -1.6669   -4.7114 H   0  0  0  0  0  0  0  0  0  0  0  0
    6.2947   -1.6332   -2.6503 H   0  0  0  0  0  0  0  0  0  0  0  0
    2.9472    1.7238   -2.1777 H   0  0  0  0  0  0  0  0  0  0  0  0
    4.5822    1.9572   -1.5481 H   0  0  0  0  0  0  0  0  0  0  0  0
    2.7200    2.1258    0.1848 H   0  0  0  0  0  0  0  0  0  0  0  0
    4.0472    1.0660    0.5861 H   0  0  0  0  0  0  0  0  0  0  0  0
  1  2  1  0  0  0  0
  1 14  1  0  0  0  0
  1 15  1  0  0  0  0
  1 16  1  0  0  0  0
  2  3  1  0  0  0  0
  2 13  1  0  0  0  0
  3  4  1  0  0  0  0
  3 17  1  0  0  0  0
  3 18  1  0  0  0  0
  4  5  2  0  0  0  0
  4 19  1  0  0  0  0
  5  6  1  0  0  0  0
  5 12  1  0  0  0  0
  6  7  1  0  0  0  0
  6 11  2  0  0  0  0
  7  8  2  0  0  0  0
  7 20  1  0  0  0  0
  8  9  1  0  0  0  0
  8 21  1  0  0  0  0
  9 10  2  0  0  0  0
  9 22  1  0  0  0  0
 10 11  1  0  0  0  0
 10 23  1  0  0  0  0
 11 24  1  0  0  0  0
 12 13  1  0  0  0  0
 12 25  1  0  0  0  0
 12 26  1  0  0  0  0
 13 27  1  0  0  0  0
 13 28  1  0  0  0  0
M  END
$$$$
