CHEBI:27448
 OpenBabel04252410023D

 99101  0  0  1  0  0  0  0  0999 V2000
    3.5023   -3.3904   -0.9037 C   0  0  0  0  0  0  0  0  0  0  0  0
    4.1714   -4.5874   -1.5221 C   0  0  0  0  0  0  0  0  0  0  0  0
    5.4655   -4.5590   -1.8928 C   0  0  0  0  0  0  0  0  0  0  0  0
    6.1927   -5.7065   -2.5242 C   0  0  2  0  0  0  0  0  0  0  0  0
    6.7063   -5.2671   -3.7775 O   0  0  0  0  0  0  0  0  0  0  0  0
    5.3561   -6.9785   -2.7275 C   0  0  0  0  0  0  0  0  0  0  0  0
    3.8305   -6.7295   -2.8834 C   0  0  0  0  0  0  0  0  0  0  0  0
    3.5292   -6.0424   -4.2373 C   0  0  0  0  0  0  0  0  0  0  0  0
    3.1073   -8.0956   -2.9142 C   0  0  0  0  0  0  0  0  0  0  0  0
    3.3062   -5.8285   -1.7086 C   0  0  1  0  0  0  0  0  0  0  0  0
    3.2354   -6.5674   -0.3867 C   0  0  0  0  0  0  0  0  0  0  0  0
    2.1278   -6.6771    0.3656 C   0  0  0  0  0  0  0  0  0  0  0  0
    2.0518   -7.3973    1.6344 C   0  0  0  0  0  0  0  0  0  0  0  0
    0.7320   -8.0948    1.8442 C   0  0  0  0  0  0  0  0  0  0  0  0
    3.0746   -7.3728    2.5114 C   0  0  0  0  0  0  0  0  0  0  0  0
    3.1320   -8.0062    3.8101 C   0  0  0  0  0  0  0  0  0  0  0  0
    4.2357   -7.9753    4.5741 C   0  0  0  0  0  0  0  0  0  0  0  0
    4.3199   -8.5448    5.9137 C   0  0  0  0  0  0  0  0  0  0  0  0
    4.8791   -7.5770    6.9245 C   0  0  0  0  0  0  0  0  0  0  0  0
    3.9440   -9.8164    6.1485 C   0  0  0  0  0  0  0  0  0  0  0  0
    3.9524  -10.4952    7.4261 C   0  0  0  0  0  0  0  0  0  0  0  0
    3.5615  -11.7691    7.5826 C   0  0  0  0  0  0  0  0  0  0  0  0
    3.5466  -12.4077    8.8820 C   0  0  0  0  0  0  0  0  0  0  0  0
    3.2106  -13.6811    9.1653 C   0  0  0  0  0  0  0  0  0  0  0  0
    2.7672  -14.7273    8.1779 C   0  0  0  0  0  0  0  0  0  0  0  0
    3.2245  -14.1520   10.5472 C   0  0  0  0  0  0  0  0  0  0  0  0
    4.2662  -13.9992   11.3809 C   0  0  0  0  0  0  0  0  0  0  0  0
    4.2598  -14.4969   12.7396 C   0  0  0  0  0  0  0  0  0  0  0  0
    5.2918  -14.5010   13.6098 C   0  0  0  0  0  0  0  0  0  0  0  0
    6.6630  -13.9373   13.3298 C   0  0  0  0  0  0  0  0  0  0  0  0
    5.0680  -15.0851   14.9311 C   0  0  0  0  0  0  0  0  0  0  0  0
    6.0142  -15.5227   15.7800 C   0  0  0  0  0  0  0  0  0  0  0  0
    5.7793  -16.1148   17.1195 C   0  0  1  0  0  0  0  0  0  0  0  0
    6.6375  -15.7678   18.2203 O   0  0  0  0  0  0  0  0  0  0  0  0
    5.3551  -15.1301   18.2316 C   0  0  1  0  0  0  0  0  0  0  0  0
    5.4556  -13.6406   18.0766 C   0  0  0  0  0  0  0  0  0  0  0  0
    4.4549  -15.6302   19.3296 C   0  0  0  0  0  0  0  0  0  0  0  0
    3.3769  -16.5994   18.8302 C   0  0  1  0  0  0  0  0  0  0  0  0
    2.1626  -15.8730   18.6000 O   0  0  0  0  0  0  0  0  0  0  0  0
    3.6934  -17.4083   17.5618 C   0  0  0  0  0  0  0  0  0  0  0  0
    5.1939  -17.5485   17.2179 C   0  0  0  0  0  0  0  0  0  0  0  0
    5.9219  -18.4145   18.2706 C   0  0  0  0  0  0  0  0  0  0  0  0
    5.3131  -18.3267   15.8844 C   0  0  0  0  0  0  0  0  0  0  0  0
    4.1809   -2.5341   -0.8280 H   0  0  0  0  0  0  0  0  0  0  0  0
    3.1475   -3.6221    0.1052 H   0  0  0  0  0  0  0  0  0  0  0  0
    2.6462   -3.0801   -1.5117 H   0  0  0  0  0  0  0  0  0  0  0  0
    6.0563   -3.6593   -1.7338 H   0  0  0  0  0  0  0  0  0  0  0  0
    7.0631   -5.9574   -1.9075 H   0  0  0  0  0  0  0  0  0  0  0  0
    6.0050   -4.7653   -4.2236 H   0  0  0  0  0  0  0  0  0  0  0  0
    5.5160   -7.6261   -1.8551 H   0  0  0  0  0  0  0  0  0  0  0  0
    5.7317   -7.5394   -3.5933 H   0  0  0  0  0  0  0  0  0  0  0  0
    3.9704   -6.6028   -5.0693 H   0  0  0  0  0  0  0  0  0  0  0  0
    3.9075   -5.0184   -4.2887 H   0  0  0  0  0  0  0  0  0  0  0  0
    2.4483   -5.9884   -4.4126 H   0  0  0  0  0  0  0  0  0  0  0  0
    3.4065   -8.6775   -3.7937 H   0  0  0  0  0  0  0  0  0  0  0  0
    2.0200   -7.9652   -2.9550 H   0  0  0  0  0  0  0  0  0  0  0  0
    3.3404   -8.7048   -2.0344 H   0  0  0  0  0  0  0  0  0  0  0  0
    2.2942   -5.4982   -1.9847 H   0  0  0  0  0  0  0  0  0  0  0  0
    4.1603   -7.0300   -0.0498 H   0  0  0  0  0  0  0  0  0  0  0  0
    1.1998   -6.2229    0.0215 H   0  0  0  0  0  0  0  0  0  0  0  0
    0.5062   -8.7481    0.9936 H   0  0  0  0  0  0  0  0  0  0  0  0
   -0.0758   -7.3602    1.9370 H   0  0  0  0  0  0  0  0  0  0  0  0
    0.7066   -8.7239    2.7368 H   0  0  0  0  0  0  0  0  0  0  0  0
    3.9693   -6.8075    2.2497 H   0  0  0  0  0  0  0  0  0  0  0  0
    2.2407   -8.4995    4.1850 H   0  0  0  0  0  0  0  0  0  0  0  0
    5.1301   -7.4597    4.2277 H   0  0  0  0  0  0  0  0  0  0  0  0
    5.9157   -7.3235    6.6753 H   0  0  0  0  0  0  0  0  0  0  0  0
    4.8763   -7.9583    7.9474 H   0  0  0  0  0  0  0  0  0  0  0  0
    4.2915   -6.6518    6.9301 H   0  0  0  0  0  0  0  0  0  0  0  0
    3.5869  -10.4161    5.3102 H   0  0  0  0  0  0  0  0  0  0  0  0
    4.2783   -9.9339    8.2964 H   0  0  0  0  0  0  0  0  0  0  0  0
    3.2333  -12.3419    6.7208 H   0  0  0  0  0  0  0  0  0  0  0  0
    3.8288  -11.7559    9.7104 H   0  0  0  0  0  0  0  0  0  0  0  0
    2.8489  -14.4054    7.1373 H   0  0  0  0  0  0  0  0  0  0  0  0
    1.7222  -15.0034    8.3567 H   0  0  0  0  0  0  0  0  0  0  0  0
    3.3822  -15.6292    8.2781 H   0  0  0  0  0  0  0  0  0  0  0  0
    2.3321  -14.6856   10.8698 H   0  0  0  0  0  0  0  0  0  0  0  0
    5.1583  -13.4975   11.0193 H   0  0  0  0  0  0  0  0  0  0  0  0
    3.3120  -14.9371   13.0523 H   0  0  0  0  0  0  0  0  0  0  0  0
    6.7197  -13.3646   12.4017 H   0  0  0  0  0  0  0  0  0  0  0  0
    7.4037  -14.7407   13.2605 H   0  0  0  0  0  0  0  0  0  0  0  0
    6.9640  -13.2504   14.1295 H   0  0  0  0  0  0  0  0  0  0  0  0
    4.0271  -15.1972   15.2314 H   0  0  0  0  0  0  0  0  0  0  0  0
    7.0638  -15.4573   15.5042 H   0  0  0  0  0  0  0  0  0  0  0  0
    6.2701  -13.3409   17.4090 H   0  0  0  0  0  0  0  0  0  0  0  0
    5.6437  -13.1677   19.0464 H   0  0  0  0  0  0  0  0  0  0  0  0
    4.5191  -13.2399   17.6761 H   0  0  0  0  0  0  0  0  0  0  0  0
    3.9790  -14.7832   19.8396 H   0  0  0  0  0  0  0  0  0  0  0  0
    5.0672  -16.1263   20.0921 H   0  0  0  0  0  0  0  0  0  0  0  0
    3.1483  -17.2952   19.6458 H   0  0  0  0  0  0  0  0  0  0  0  0
    2.3489  -15.1852   17.9376 H   0  0  0  0  0  0  0  0  0  0  0  0
    3.1732  -16.9497   16.7093 H   0  0  0  0  0  0  0  0  0  0  0  0
    3.2366  -18.4025   17.6623 H   0  0  0  0  0  0  0  0  0  0  0  0
    5.8600  -18.0069   19.2820 H   0  0  0  0  0  0  0  0  0  0  0  0
    6.9862  -18.5096   18.0251 H   0  0  0  0  0  0  0  0  0  0  0  0
    5.4979  -19.4247   18.3104 H   0  0  0  0  0  0  0  0  0  0  0  0
    4.7289  -17.8663   15.0811 H   0  0  0  0  0  0  0  0  0  0  0  0
    4.9408  -19.3526   15.9918 H   0  0  0  0  0  0  0  0  0  0  0  0
    6.3557  -18.3849   15.5513 H   0  0  0  0  0  0  0  0  0  0  0  0
  1  2  1  0  0  0  0
  1 44  1  0  0  0  0
  1 45  1  0  0  0  0
  1 46  1  0  0  0  0
  2  3  2  0  0  0  0
  2 10  1  0  0  0  0
  3  4  1  0  0  0  0
  3 47  1  0  0  0  0
  4  5  1  0  0  0  0
  4  6  1  0  0  0  0
  4 48  1  1  0  0  0
  5 49  1  0  0  0  0
  6  7  1  0  0  0  0
  6 50  1  0  0  0  0
  6 51  1  0  0  0  0
  7  8  1  0  0  0  0
  7  9  1  0  0  0  0
  7 10  1  0  0  0  0
  8 52  1  0  0  0  0
  8 53  1  0  0  0  0
  8 54  1  0  0  0  0
  9 55  1  0  0  0  0
  9 56  1  0  0  0  0
  9 57  1  0  0  0  0
 10 11  1  0  0  0  0
 10 58  1  6  0  0  0
 11 12  2  0  0  0  0
 11 59  1  0  0  0  0
 12 13  1  0  0  0  0
 12 60  1  0  0  0  0
 13 14  1  0  0  0  0
 13 15  2  0  0  0  0
 14 61  1  0  0  0  0
 14 62  1  0  0  0  0
 14 63  1  0  0  0  0
 15 16  1  0  0  0  0
 15 64  1  0  0  0  0
 16 17  2  0  0  0  0
 16 65  1  0  0  0  0
 17 18  1  0  0  0  0
 17 66  1  0  0  0  0
 18 19  1  0  0  0  0
 18 20  2  0  0  0  0
 19 67  1  0  0  0  0
 19 68  1  0  0  0  0
 19 69  1  0  0  0  0
 20 21  1  0  0  0  0
 20 70  1  0  0  0  0
 21 22  2  0  0  0  0
 21 71  1  0  0  0  0
 22 23  1  0  0  0  0
 22 72  1  0  0  0  0
 23 24  2  0  0  0  0
 23 73  1  0  0  0  0
 24 25  1  0  0  0  0
 24 26  1  0  0  0  0
 25 74  1  0  0  0  0
 25 75  1  0  0  0  0
 25 76  1  0  0  0  0
 26 27  2  0  0  0  0
 26 77  1  0  0  0  0
 27 28  1  0  0  0  0
 27 78  1  0  0  0  0
 28 29  2  0  0  0  0
 28 79  1  0  0  0  0
 29 30  1  0  0  0  0
 29 31  1  0  0  0  0
 30 80  1  0  0  0  0
 30 81  1  0  0  0  0
 30 82  1  0  0  0  0
 31 32  2  0  0  0  0
 31 83  1  0  0  0  0
 32 84  1  0  0  0  0
 33 34  1  0  0  0  0
 33 35  1  0  0  0  0
 33 41  1  0  0  0  0
 33 32  1  6  0  0  0
 34 35  1  0  0  0  0
 35 37  1  0  0  0  0
 35 36  1  6  0  0  0
 36 85  1  0  0  0  0
 36 86  1  0  0  0  0
 36 87  1  0  0  0  0
 37 38  1  0  0  0  0
 37 88  1  0  0  0  0
 37 89  1  0  0  0  0
 38 40  1  0  0  0  0
 38 39  1  0  0  0  0
 38 90  1  1  0  0  0
 39 91  1  0  0  0  0
 40 41  1  0  0  0  0
 40 92  1  0  0  0  0
 40 93  1  0  0  0  0
 41 42  1  0  0  0  0
 41 43  1  0  0  0  0
 42 94  1  0  0  0  0
 42 95  1  0  0  0  0
 42 96  1  0  0  0  0
 43 97  1  0  0  0  0
 43 98  1  0  0  0  0
 43 99  1  0  0  0  0
M  END
$$$$
