CHEBI:17587
 OpenBabel04242416533D

 22 22  0  0  1  0  0  0  0  0999 V2000
    1.5559    1.2687    0.5093 O   0  0  0  0  0  0  0  0  0  0  0  0
    2.6128    0.7304    0.2172 C   0  0  0  0  0  0  0  0  0  0  0  0
    3.1945    0.8020   -1.0092 O   0  0  0  0  0  0  0  0  0  0  0  0
    4.2708   -0.1373   -1.1002 C   0  0  2  0  0  0  0  0  0  0  0  0
    3.9300   -1.2826   -2.0721 C   0  0  1  0  0  0  0  0  0  0  0  0
    5.0367   -2.1912   -2.2015 O   0  0  0  0  0  0  0  0  0  0  0  0
    2.6802   -2.0967   -1.7158 C   0  0  0  0  0  0  0  0  0  0  0  0
    2.4475   -3.0725   -2.7341 O   0  0  0  0  0  0  0  0  0  0  0  0
    4.6295   -0.5266    0.3319 C   0  0  2  0  0  0  0  0  0  0  0  0
    4.9860   -1.9027    0.4716 O   0  0  0  0  0  0  0  0  0  0  0  0
    3.4131   -0.1425    1.1577 C   0  0  2  0  0  0  0  0  0  0  0  0
    2.7255   -1.3084    1.5931 O   0  0  0  0  0  0  0  0  0  0  0  0
    5.1326    0.3970   -1.5209 H   0  0  0  0  0  0  0  0  0  0  0  0
    3.7702   -0.8560   -3.0699 H   0  0  0  0  0  0  0  0  0  0  0  0
    5.2841   -2.4596   -1.2885 H   0  0  0  0  0  0  0  0  0  0  0  0
    1.7905   -1.4658   -1.6422 H   0  0  0  0  0  0  0  0  0  0  0  0
    2.8064   -2.6477   -0.7809 H   0  0  0  0  0  0  0  0  0  0  0  0
    3.3306   -3.4104   -2.9846 H   0  0  0  0  0  0  0  0  0  0  0  0
    5.4877    0.0734    0.6578 H   0  0  0  0  0  0  0  0  0  0  0  0
    4.3608   -2.2748    1.1343 H   0  0  0  0  0  0  0  0  0  0  0  0
    3.7135    0.4446    2.0313 H   0  0  0  0  0  0  0  0  0  0  0  0
    1.8815   -1.0012    1.9825 H   0  0  0  0  0  0  0  0  0  0  0  0
  1  2  2  0  0  0  0
  2  3  1  0  0  0  0
  2 11  1  0  0  0  0
  3  4  1  0  0  0  0
  4  5  1  0  0  0  0
  4  9  1  0  0  0  0
  4 13  1  6  0  0  0
  5  6  1  0  0  0  0
  5  7  1  0  0  0  0
  5 14  1  6  0  0  0
  6 15  1  0  0  0  0
  7  8  1  0  0  0  0
  7 16  1  0  0  0  0
  7 17  1  0  0  0  0
  8 18  1  0  0  0  0
  9 10  1  0  0  0  0
  9 11  1  0  0  0  0
  9 19  1  1  0  0  0
 10 20  1  0  0  0  0
 11 12  1  0  0  0  0
 11 21  1  1  0  0  0
 12 22  1  0  0  0  0
M  END
$$$$
