CHEBI:17775
 OpenBabel04242417163D

 16 17  0  0  0  0  0  0  0  0999 V2000
    1.0062    0.0958    0.1869 O   0  0  0  0  0  0  0  0  0  0  0  0
    2.2305    0.0833    0.1267 C   0  0  0  0  0  0  0  0  0  0  0  0
    2.9511   -1.0917    0.0803 N   0  0  0  0  0  0  0  0  0  0  0  0
    4.3242   -1.2061    0.0114 C   0  0  0  0  0  0  0  0  0  0  0  0
    4.9173   -2.2762   -0.0277 O   0  0  0  0  0  0  0  0  0  0  0  0
    5.0168    0.0834   -0.0111 C   0  0  0  0  0  0  0  0  0  0  0  0
    6.3497    0.3659   -0.0754 N   0  0  0  0  0  0  0  0  0  0  0  0
    6.4966    1.7638   -0.0705 C   0  0  0  0  0  0  0  0  0  0  0  0
    7.5275    2.4053   -0.1170 O   0  0  0  0  0  0  0  0  0  0  0  0
    5.1790    2.2677    0.0005 N   0  0  0  0  0  0  0  0  0  0  0  0
    4.3163    1.2167    0.0342 C   0  0  0  0  0  0  0  0  0  0  0  0
    2.9695    1.2431    0.1013 N   0  0  0  0  0  0  0  0  0  0  0  0
    2.4195   -1.9490    0.0984 H   0  0  0  0  0  0  0  0  0  0  0  0
    7.1023   -0.3052   -0.1197 H   0  0  0  0  0  0  0  0  0  0  0  0
    4.9625    3.2511    0.0198 H   0  0  0  0  0  0  0  0  0  0  0  0
    2.4594    2.1152    0.1345 H   0  0  0  0  0  0  0  0  0  0  0  0
  1  2  2  0  0  0  0
  2  3  1  0  0  0  0
  2 12  1  0  0  0  0
  3  4  1  0  0  0  0
  3 13  1  0  0  0  0
  4  5  2  0  0  0  0
  4  6  1  0  0  0  0
  6  7  1  0  0  0  0
  6 11  2  0  0  0  0
  7  8  1  0  0  0  0
  7 14  1  0  0  0  0
  8  9  2  0  0  0  0
  8 10  1  0  0  0  0
 10 11  1  0  0  0  0
 10 15  1  0  0  0  0
 11 12  1  0  0  0  0
 12 16  1  0  0  0  0
M  END
$$$$
