CHEBI:16783
 OpenBabel04242415143D

 44 44  0  0  1  0  0  0  0  0999 V2000
    1.4958    4.0485    3.5966 O   0  0  0  0  0  0  0  0  0  0  0  0
    2.5859    3.8625    2.6068 P   0  0  0  0  0  0  0  0  0  0  0  0
    2.0849    3.5015    1.1400 O   0  0  0  0  0  0  0  0  0  0  0  0
    3.4053    5.2160    2.3642 O   0  0  0  0  0  0  0  0  0  0  0  0
    3.7316    2.8190    2.9893 O   0  0  0  0  0  0  0  0  0  0  0  0
    4.5401    2.1809    1.9941 C   0  0  1  0  0  0  0  0  0  0  0  0
    5.5949    3.1294    1.4000 C   0  0  2  0  0  0  0  0  0  0  0  0
    4.9393    4.1210    0.5773 O   0  0  0  0  0  0  0  0  0  0  0  0
    6.5865    2.3864    0.4846 C   0  0  1  0  0  0  0  0  0  0  0  0
    7.7145    3.2091    0.1499 O   0  0  0  0  0  0  0  0  0  0  0  0
    7.5398    4.7133   -0.3567 P   0  0  0  0  0  0  0  0  0  0  0  0
    7.3526    5.7558    0.6930 O   0  0  0  0  0  0  0  0  0  0  0  0
    8.8285    4.9595   -1.2649 O   0  0  0  0  0  0  0  0  0  0  0  0
    6.3799    4.6577   -1.4523 O   0  0  0  0  0  0  0  0  0  0  0  0
    7.1604    1.0796    1.0658 C   0  0  2  0  0  0  0  0  0  0  0  0
    7.7456    0.3968   -0.0536 O   0  0  0  0  0  0  0  0  0  0  0  0
    8.3856   -1.0577    0.0671 P   0  0  0  0  0  0  0  0  0  0  0  0
    7.4297   -2.2008    0.0906 O   0  0  0  0  0  0  0  0  0  0  0  0
    9.4094   -1.1340   -1.1537 O   0  0  0  0  0  0  0  0  0  0  0  0
    9.3676   -0.9965    1.3213 O   0  0  0  0  0  0  0  0  0  0  0  0
    6.1177    0.1977    1.7785 C   0  0  1  0  0  0  0  0  0  0  0  0
    6.8531   -0.7966    2.5118 O   0  0  0  0  0  0  0  0  0  0  0  0
    6.1042   -1.9375    3.3458 P   0  0  0  0  0  0  0  0  0  0  0  0
    6.9214   -3.1498    3.6213 O   0  0  0  0  0  0  0  0  0  0  0  0
    5.6093   -1.2352    4.6878 O   0  0  0  0  0  0  0  0  0  0  0  0
    4.7393   -2.2327    2.5797 O   0  0  0  0  0  0  0  0  0  0  0  0
    5.2263    1.0175    2.7151 C   0  0  1  0  0  0  0  0  0  0  0  0
    6.0268    1.5426    3.7882 O   0  0  0  0  0  0  0  0  0  0  0  0
    1.3034    4.0260    0.8859 H   0  0  0  0  0  0  0  0  0  0  0  0
    3.3662    5.7730    3.1693 H   0  0  0  0  0  0  0  0  0  0  0  0
    3.8848    1.7901    1.2071 H   0  0  0  0  0  0  0  0  0  0  0  0
    6.1273    3.6771    2.1863 H   0  0  0  0  0  0  0  0  0  0  0  0
    4.5410    4.7772    1.1973 H   0  0  0  0  0  0  0  0  0  0  0  0
    6.0897    2.1590   -0.4682 H   0  0  0  0  0  0  0  0  0  0  0  0
    8.8880    5.8912   -1.5349 H   0  0  0  0  0  0  0  0  0  0  0  0
    5.5247    4.5776   -0.9700 H   0  0  0  0  0  0  0  0  0  0  0  0
    7.9857    1.3144    1.7500 H   0  0  0  0  0  0  0  0  0  0  0  0
    9.7222   -2.0444   -1.2896 H   0  0  0  0  0  0  0  0  0  0  0  0
    8.8674   -1.1708    2.1418 H   0  0  0  0  0  0  0  0  0  0  0  0
    5.5073   -0.3153    1.0259 H   0  0  0  0  0  0  0  0  0  0  0  0
    6.3261   -1.1985    5.3480 H   0  0  0  0  0  0  0  0  0  0  0  0
    4.4722   -3.1615    2.7137 H   0  0  0  0  0  0  0  0  0  0  0  0
    4.4641    0.3823    3.1777 H   0  0  0  0  0  0  0  0  0  0  0  0
    5.3918    1.9303    4.4225 H   0  0  0  0  0  0  0  0  0  0  0  0
  1  2  2  0  0  0  0
  2  3  1  0  0  0  0
  2  4  1  0  0  0  0
  2  5  1  0  0  0  0
  3 29  1  0  0  0  0
  4 30  1  0  0  0  0
  6  7  1  0  0  0  0
  6 27  1  0  0  0  0
  6  5  1  0  0  0  0
  6 31  1  6  0  0  0
  7  9  1  0  0  0  0
  7  8  1  0  0  0  0
  7 32  1  1  0  0  0
  8 33  1  0  0  0  0
  9 10  1  0  0  0  0
  9 15  1  0  0  0  0
  9 34  1  6  0  0  0
 10 11  1  0  0  0  0
 11 12  2  0  0  0  0
 11 13  1  0  0  0  0
 11 14  1  0  0  0  0
 13 35  1  0  0  0  0
 14 36  1  0  0  0  0
 15 21  1  0  0  0  0
 15 16  1  0  0  0  0
 15 37  1  1  0  0  0
 16 17  1  0  0  0  0
 17 18  2  0  0  0  0
 17 19  1  0  0  0  0
 17 20  1  0  0  0  0
 19 38  1  0  0  0  0
 20 39  1  0  0  0  0
 21 22  1  0  0  0  0
 21 27  1  0  0  0  0
 21 40  1  6  0  0  0
 22 23  1  0  0  0  0
 23 24  2  0  0  0  0
 23 25  1  0  0  0  0
 23 26  1  0  0  0  0
 25 41  1  0  0  0  0
 26 42  1  0  0  0  0
 27 28  1  0  0  0  0
 27 43  1  1  0  0  0
 28 44  1  0  0  0  0
M  END
$$$$
