CHEBI:15573
 OpenBabel04242412483D

 15 14  0  0  0  0  0  0  0  0999 V2000
    0.9181   -0.0106    0.0656 N   0  0  0  0  0  0  0  0  0  0  0  0
    2.3707   -0.0421    0.2101 C   0  0  0  0  0  0  0  0  0  0  0  0
    2.9066   -1.4555    0.0309 C   0  0  0  0  0  0  0  0  0  0  0  0
    4.7366   -1.4555    0.0309 P   0  0  0  0  0  0  0  0  0  0  0  0
    4.7716   -1.3267    1.5556 O   0  0  0  0  0  0  0  0  0  0  0  0
    4.7690   -3.0692   -0.2325 O   0  0  0  0  0  0  0  0  0  0  0  0
    6.4666   -1.4555    0.0309 O   0  0  0  0  0  0  0  0  0  0  0  0
    0.5825    0.9402    0.2213 H   0  0  0  0  0  0  0  0  0  0  0  0
    0.4888   -0.5793    0.7963 H   0  0  0  0  0  0  0  0  0  0  0  0
    2.6520    0.3508    1.1926 H   0  0  0  0  0  0  0  0  0  0  0  0
    2.8188    0.6174   -0.5409 H   0  0  0  0  0  0  0  0  0  0  0  0
    2.5840   -1.8510   -0.9401 H   0  0  0  0  0  0  0  0  0  0  0  0
    2.5166   -2.1271    0.8056 H   0  0  0  0  0  0  0  0  0  0  0  0
    4.9014   -3.5524    0.6046 H   0  0  0  0  0  0  0  0  0  0  0  0
    6.7269   -1.6857    0.9450 H   0  0  0  0  0  0  0  0  0  0  0  0
  1  2  1  0  0  0  0
  1  8  1  0  0  0  0
  1  9  1  0  0  0  0
  2  3  1  0  0  0  0
  2 10  1  0  0  0  0
  2 11  1  0  0  0  0
  3  4  1  0  0  0  0
  3 12  1  0  0  0  0
  3 13  1  0  0  0  0
  4  5  2  0  0  0  0
  4  6  1  0  0  0  0
  4  7  1  0  0  0  0
  6 14  1  0  0  0  0
  7 15  1  0  0  0  0
M  END
$$$$
