CHEBI:15914
 OpenBabel04242413283D

 18 17  0  0  0  0  0  0  0  0999 V2000
    1.9280   -1.8768   -0.6074 C   0  0  0  0  0  0  0  0  0  0  0  0
    2.7037   -0.5870   -0.5954 C   0  0  0  0  0  0  0  0  0  0  0  0
    2.5785    0.2505   -1.4892 O   0  0  0  0  0  0  0  0  0  0  0  0
    3.5978   -0.3241    0.5985 C   0  0  0  0  0  0  0  0  0  0  0  0
    4.9972    0.0644    0.1305 C   0  0  0  0  0  0  0  0  0  0  0  0
    5.7622    0.7564    1.2176 N   0  0  0  0  0  0  0  0  0  0  0  0
    5.7866   -1.1974   -0.2619 C   0  0  0  0  0  0  0  0  0  0  0  0
    5.3271   -2.1665   -0.8436 O   0  0  0  0  0  0  0  0  0  0  0  0
    7.0832   -1.1062    0.1341 O   0  0  0  0  0  0  0  0  0  0  0  0
    1.3675   -1.9605   -1.5426 H   0  0  0  0  0  0  0  0  0  0  0  0
    1.2272   -1.8881    0.2309 H   0  0  0  0  0  0  0  0  0  0  0  0
    2.6145   -2.7235   -0.5352 H   0  0  0  0  0  0  0  0  0  0  0  0
    3.6231   -1.2106    1.2426 H   0  0  0  0  0  0  0  0  0  0  0  0
    3.1259    0.4844    1.1697 H   0  0  0  0  0  0  0  0  0  0  0  0
    4.9868    0.7236   -0.7442 H   0  0  0  0  0  0  0  0  0  0  0  0
    5.5596    0.2921    2.1094 H   0  0  0  0  0  0  0  0  0  0  0  0
    5.3643    1.6952    1.3248 H   0  0  0  0  0  0  0  0  0  0  0  0
    7.1604   -0.2397    0.6079 H   0  0  0  0  0  0  0  0  0  0  0  0
  1  2  1  0  0  0  0
  1 10  1  0  0  0  0
  1 11  1  0  0  0  0
  1 12  1  0  0  0  0
  2  3  2  0  0  0  0
  2  4  1  0  0  0  0
  4  5  1  0  0  0  0
  4 13  1  0  0  0  0
  4 14  1  0  0  0  0
  5  6  1  0  0  0  0
  5  7  1  0  0  0  0
  5 15  1  0  0  0  0
  6 16  1  0  0  0  0
  6 17  1  0  0  0  0
  7  8  2  0  0  0  0
  7  9  1  0  0  0  0
  9 18  1  0  0  0  0
M  END
$$$$
