CHEBI:17938
 OpenBabel04242423183D

 76 79  0  0  1  0  0  0  0  0999 V2000
    9.0315    2.6605   -0.8379 C   0  0  0  0  0  0  0  0  0  0  0  0
    8.6111    1.2006   -0.6297 C   0  0  0  0  0  0  0  0  0  0  0  0
    7.0917    1.1505   -0.4158 C   0  0  0  0  0  0  0  0  0  0  0  0
    9.0610    0.2910   -1.8075 C   0  0  1  0  0  0  0  0  0  0  0  0
   10.5800    0.3101   -2.0158 C   0  0  0  0  0  0  0  0  0  0  0  0
    8.6394   -1.1471   -1.5961 C   0  0  0  0  0  0  0  0  0  0  0  0
    8.0492   -1.8949   -2.5433 C   0  0  0  0  0  0  0  0  0  0  0  0
    7.6414   -3.3506   -2.3911 C   0  0  1  0  0  0  0  0  0  0  0  0
    8.9209   -4.1870   -2.2528 C   0  0  0  0  0  0  0  0  0  0  0  0
    6.5925   -3.5901   -1.2569 C   0  0  1  0  0  0  0  0  0  0  0  0
    5.3851   -2.6240   -1.3633 C   0  0  0  0  0  0  0  0  0  0  0  0
    4.1405   -3.4846   -1.4982 C   0  0  0  0  0  0  0  0  0  0  0  0
    4.4674   -4.7669   -0.7266 C   0  0  1  0  0  0  0  0  0  0  0  0
    4.2290   -4.7458    0.7779 C   0  0  0  0  0  0  0  0  0  0  0  0
    3.5435   -3.8050    1.4523 C   0  0  0  0  0  0  0  0  0  0  0  0
    3.2983   -3.8188    2.9331 C   0  0  0  0  0  0  0  0  0  0  0  0
    4.1079   -4.8758    3.7320 C   0  0  1  0  0  0  0  0  0  0  0  0
    5.4150   -4.3249    3.9853 O   0  0  0  0  0  0  0  0  0  0  0  0
    3.4556   -5.0937    5.1188 C   0  0  0  0  0  0  0  0  0  0  0  0
    2.4399   -6.2375    5.1918 C   0  0  1  0  0  0  0  0  0  0  0  0
    1.3791   -5.8769    6.0751 O   0  0  0  0  0  0  0  0  0  0  0  0
    1.8403   -6.6128    3.8495 C   0  0  0  0  0  0  0  0  0  0  0  0
    2.8766   -6.9019    2.7649 C   0  0  0  0  0  0  0  0  0  0  0  0
    4.2697   -6.2015    2.9350 C   0  0  1  0  0  0  0  0  0  0  0  0
    5.2050   -7.1915    3.6808 C   0  0  0  0  0  0  0  0  0  0  0  0
    4.8441   -5.9383    1.4911 C   0  0  1  0  0  0  0  0  0  0  0  0
    6.3603   -5.7451    1.3372 C   0  0  0  0  0  0  0  0  0  0  0  0
    6.7458   -5.9174   -0.1394 C   0  0  0  0  0  0  0  0  0  0  0  0
    5.9589   -5.0318   -1.1455 C   0  0  2  0  0  0  0  0  0  0  0  0
    5.9220   -5.7857   -2.5019 C   0  0  0  0  0  0  0  0  0  0  0  0
    8.6601    3.2922   -0.0235 H   0  0  0  0  0  0  0  0  0  0  0  0
    8.6360    3.0560   -1.7795 H   0  0  0  0  0  0  0  0  0  0  0  0
   10.1202    2.7668   -0.8504 H   0  0  0  0  0  0  0  0  0  0  0  0
    9.0879    0.8475    0.2949 H   0  0  0  0  0  0  0  0  0  0  0  0
    6.5536    1.4283   -1.3284 H   0  0  0  0  0  0  0  0  0  0  0  0
    6.7880    1.8406    0.3790 H   0  0  0  0  0  0  0  0  0  0  0  0
    6.7626    0.1513   -0.1145 H   0  0  0  0  0  0  0  0  0  0  0  0
    8.5961    0.6695   -2.7285 H   0  0  0  0  0  0  0  0  0  0  0  0
   11.1137    0.0511   -1.0946 H   0  0  0  0  0  0  0  0  0  0  0  0
   10.9247    1.2947   -2.3460 H   0  0  0  0  0  0  0  0  0  0  0  0
   10.8810   -0.4056   -2.7902 H   0  0  0  0  0  0  0  0  0  0  0  0
    8.8529   -1.5834   -0.6219 H   0  0  0  0  0  0  0  0  0  0  0  0
    7.8608   -1.4566   -3.5226 H   0  0  0  0  0  0  0  0  0  0  0  0
    7.1750   -3.6220   -3.3469 H   0  0  0  0  0  0  0  0  0  0  0  0
    9.4478   -3.9693   -1.3177 H   0  0  0  0  0  0  0  0  0  0  0  0
    9.6096   -3.9780   -3.0809 H   0  0  0  0  0  0  0  0  0  0  0  0
    8.7273   -5.2600   -2.2773 H   0  0  0  0  0  0  0  0  0  0  0  0
    7.0892   -3.3597   -0.3034 H   0  0  0  0  0  0  0  0  0  0  0  0
    5.4469   -1.9214   -2.1995 H   0  0  0  0  0  0  0  0  0  0  0  0
    5.3255   -2.0249   -0.4461 H   0  0  0  0  0  0  0  0  0  0  0  0
    3.9761   -3.7162   -2.5574 H   0  0  0  0  0  0  0  0  0  0  0  0
    3.2390   -2.9637   -1.1666 H   0  0  0  0  0  0  0  0  0  0  0  0
    3.8191   -5.5677   -1.1084 H   0  0  0  0  0  0  0  0  0  0  0  0
    3.0952   -2.9630    0.9352 H   0  0  0  0  0  0  0  0  0  0  0  0
    2.2215   -3.9563    3.0764 H   0  0  0  0  0  0  0  0  0  0  0  0
    3.5312   -2.8162    3.3147 H   0  0  0  0  0  0  0  0  0  0  0  0
    5.3037   -3.4410    4.3749 H   0  0  0  0  0  0  0  0  0  0  0  0
    3.0004   -4.1549    5.4638 H   0  0  0  0  0  0  0  0  0  0  0  0
    4.2346   -5.2936    5.8681 H   0  0  0  0  0  0  0  0  0  0  0  0
    2.9114   -7.1264    5.6250 H   0  0  0  0  0  0  0  0  0  0  0  0
    1.7600   -5.7775    6.9647 H   0  0  0  0  0  0  0  0  0  0  0  0
    1.1638   -5.8170    3.5138 H   0  0  0  0  0  0  0  0  0  0  0  0
    1.1833   -7.4846    3.9676 H   0  0  0  0  0  0  0  0  0  0  0  0
    2.4165   -6.6319    1.8054 H   0  0  0  0  0  0  0  0  0  0  0  0
    3.0265   -7.9884    2.7028 H   0  0  0  0  0  0  0  0  0  0  0  0
    4.7612   -7.5763    4.6018 H   0  0  0  0  0  0  0  0  0  0  0  0
    6.1565   -6.7292    3.9623 H   0  0  0  0  0  0  0  0  0  0  0  0
    5.4295   -8.0621    3.0532 H   0  0  0  0  0  0  0  0  0  0  0  0
    4.5840   -6.8387    0.9124 H   0  0  0  0  0  0  0  0  0  0  0  0
    6.9248   -6.4895    1.9058 H   0  0  0  0  0  0  0  0  0  0  0  0
    6.6805   -4.7596    1.6967 H   0  0  0  0  0  0  0  0  0  0  0  0
    6.5906   -6.9758   -0.3904 H   0  0  0  0  0  0  0  0  0  0  0  0
    7.8234   -5.7489   -0.2368 H   0  0  0  0  0  0  0  0  0  0  0  0
    6.9121   -6.1066   -2.8312 H   0  0  0  0  0  0  0  0  0  0  0  0
    5.4825   -5.1843   -3.3030 H   0  0  0  0  0  0  0  0  0  0  0  0
    5.3193   -6.6984   -2.4163 H   0  0  0  0  0  0  0  0  0  0  0  0
  1  2  1  0  0  0  0
  1 31  1  0  0  0  0
  1 32  1  0  0  0  0
  1 33  1  0  0  0  0
  2  3  1  0  0  0  0
  2  4  1  0  0  0  0
  2 34  1  0  0  0  0
  3 35  1  0  0  0  0
  3 36  1  0  0  0  0
  3 37  1  0  0  0  0
  4  5  1  0  0  0  0
  4  6  1  0  0  0  0
  4 38  1  6  0  0  0
  5 39  1  0  0  0  0
  5 40  1  0  0  0  0
  5 41  1  0  0  0  0
  6  7  2  0  0  0  0
  6 42  1  0  0  0  0
  7 43  1  0  0  0  0
  8  9  1  0  0  0  0
  8  7  1  0  0  0  0
  8 44  1  6  0  0  0
  9 45  1  0  0  0  0
  9 46  1  0  0  0  0
  9 47  1  0  0  0  0
 10 11  1  0  0  0  0
 10 29  1  0  0  0  0
 10  8  1  0  0  0  0
 10 48  1  1  0  0  0
 11 12  1  0  0  0  0
 11 49  1  0  0  0  0
 11 50  1  0  0  0  0
 12 13  1  0  0  0  0
 12 51  1  0  0  0  0
 12 52  1  0  0  0  0
 13 14  1  0  0  0  0
 13 29  1  0  0  0  0
 13 53  1  1  0  0  0
 14 15  2  0  0  0  0
 14 26  1  0  0  0  0
 15 16  1  0  0  0  0
 15 54  1  0  0  0  0
 16 17  1  0  0  0  0
 16 55  1  0  0  0  0
 16 56  1  0  0  0  0
 17 19  1  0  0  0  0
 17 24  1  0  0  0  0
 17 18  1  1  0  0  0
 18 57  1  0  0  0  0
 19 20  1  0  0  0  0
 19 58  1  0  0  0  0
 19 59  1  0  0  0  0
 20 22  1  0  0  0  0
 20 21  1  0  0  0  0
 20 60  1  1  0  0  0
 21 61  1  0  0  0  0
 22 23  1  0  0  0  0
 22 62  1  0  0  0  0
 22 63  1  0  0  0  0
 23 24  1  0  0  0  0
 23 64  1  0  0  0  0
 23 65  1  0  0  0  0
 24 26  1  0  0  0  0
 24 25  1  6  0  0  0
 25 66  1  0  0  0  0
 25 67  1  0  0  0  0
 25 68  1  0  0  0  0
 26 27  1  0  0  0  0
 26 69  1  1  0  0  0
 27 28  1  0  0  0  0
 27 70  1  0  0  0  0
 27 71  1  0  0  0  0
 28 29  1  0  0  0  0
 28 72  1  0  0  0  0
 28 73  1  0  0  0  0
 29 30  1  6  0  0  0
 30 74  1  0  0  0  0
 30 75  1  0  0  0  0
 30 76  1  0  0  0  0
M  END
$$$$
