CHEBI:18373
 OpenBabel04252409283D

 47 50  0  0  1  0  0  0  0  0999 V2000
    3.1664    0.3096   -1.2671 C   0  0  0  0  0  0  0  0  0  0  0  0
    2.0834    0.2700   -0.3482 O   0  0  0  0  0  0  0  0  0  0  0  0
    2.3093   -0.3666    0.8571 C   0  0  0  0  0  0  0  0  0  0  0  0
    3.5828   -0.9292    1.2837 C   0  0  0  0  0  0  0  0  0  0  0  0
    3.8657   -1.7549    2.9810 C   0  0  2  0  0  0  0  0  0  0  0  0
    5.1011   -1.1134    3.6495 C   0  0  0  0  0  0  0  0  0  0  0  0
    4.6929    0.2771    4.0016 C   0  0  0  0  0  0  0  0  0  0  0  0
    3.3088    0.0506    4.3734 N   0  0  0  0  0  0  0  0  0  0  0  0
    2.6896    1.3080    4.8138 C   0  0  0  0  0  0  0  0  0  0  0  0
    2.5575   -0.6453    3.1174 C   0  0  2  0  0  0  0  0  0  0  0  0
    1.9657   -2.4198    2.2319 C   0  0  0  0  0  0  0  0  0  0  0  0
    2.8761   -3.6448    2.2947 C   0  0  0  0  0  0  0  0  0  0  0  0
    2.6342   -4.9613    1.9355 C   0  0  0  0  0  0  0  0  0  0  0  0
    3.6824   -5.8790    2.0439 C   0  0  0  0  0  0  0  0  0  0  0  0
    4.9424   -5.4543    2.4886 C   0  0  0  0  0  0  0  0  0  0  0  0
    6.0536   -6.2494    2.6317 O   0  0  0  0  0  0  0  0  0  0  0  0
    5.8520   -7.6499    2.4796 C   0  0  0  0  0  0  0  0  0  0  0  0
    5.1414   -4.1017    2.8165 C   0  0  0  0  0  0  0  0  0  0  0  0
    6.3789   -3.6860    3.2149 O   0  0  0  0  0  0  0  0  0  0  0  0
    4.0899   -3.2154    2.7268 C   0  0  0  0  0  0  0  0  0  0  0  0
    2.1840   -1.6045    3.9777 C   0  0  0  0  0  0  0  0  0  0  0  0
    0.8706   -1.0682    3.5596 C   0  0  0  0  0  0  0  0  0  0  0  0
    0.7137   -0.3937    1.8290 C   0  0  2  0  0  0  0  0  0  0  0  0
   -0.2731   -1.1331    1.1294 O   0  0  0  0  0  0  0  0  0  0  0  0
    2.8219    0.8197   -2.1716 H   0  0  0  0  0  0  0  0  0  0  0  0
    3.4800   -0.7008   -1.5491 H   0  0  0  0  0  0  0  0  0  0  0  0
    4.0057    0.8816   -0.8585 H   0  0  0  0  0  0  0  0  0  0  0  0
    4.4896   -0.9191    0.6871 H   0  0  0  0  0  0  0  0  0  0  0  0
    5.9730   -1.1032    2.9862 H   0  0  0  0  0  0  0  0  0  0  0  0
    5.3692   -1.6641    4.5610 H   0  0  0  0  0  0  0  0  0  0  0  0
    4.7881    0.9628    3.1515 H   0  0  0  0  0  0  0  0  0  0  0  0
    5.2957    0.6629    4.8305 H   0  0  0  0  0  0  0  0  0  0  0  0
    1.6503    1.1505    5.1193 H   0  0  0  0  0  0  0  0  0  0  0  0
    2.7130    2.0801    4.0364 H   0  0  0  0  0  0  0  0  0  0  0  0
    3.2152    1.6963    5.6935 H   0  0  0  0  0  0  0  0  0  0  0  0
    2.1309    0.3358    2.8405 H   0  0  0  0  0  0  0  0  0  0  0  0
    1.7933   -2.3757    1.1426 H   0  0  0  0  0  0  0  0  0  0  0  0
    0.9975   -2.8636    2.5786 H   0  0  0  0  0  0  0  0  0  0  0  0
    1.6580   -5.2697    1.5749 H   0  0  0  0  0  0  0  0  0  0  0  0
    3.4900   -6.9085    1.7631 H   0  0  0  0  0  0  0  0  0  0  0  0
    6.7992   -8.1494    2.7050 H   0  0  0  0  0  0  0  0  0  0  0  0
    5.5821   -7.8978    1.4480 H   0  0  0  0  0  0  0  0  0  0  0  0
    5.1033   -8.0228    3.1867 H   0  0  0  0  0  0  0  0  0  0  0  0
    6.9263   -4.4956    3.2145 H   0  0  0  0  0  0  0  0  0  0  0  0
   -0.0490   -1.2323    4.1112 H   0  0  0  0  0  0  0  0  0  0  0  0
    0.3793    0.6504    1.9226 H   0  0  0  0  0  0  0  0  0  0  0  0
   -0.9893   -1.3096    1.7593 H   0  0  0  0  0  0  0  0  0  0  0  0
  1  2  1  0  0  0  0
  1 25  1  0  0  0  0
  1 26  1  0  0  0  0
  1 27  1  0  0  0  0
  2  3  1  0  0  0  0
  3  4  2  0  0  0  0
  3 23  1  0  0  0  0
  4 28  1  0  0  0  0
  5  4  1  6  0  0  0
  5  6  1  0  0  0  0
  5 20  1  0  0  0  0
  5 21  1  0  0  0  0
  6  7  1  0  0  0  0
  6 29  1  0  0  0  0
  6 30  1  0  0  0  0
  7  8  1  0  0  0  0
  7 31  1  0  0  0  0
  7 32  1  0  0  0  0
  8  9  1  0  0  0  0
  8 10  1  0  0  0  0
  9 33  1  0  0  0  0
  9 34  1  0  0  0  0
  9 35  1  0  0  0  0
 10 11  1  0  0  0  0
 10 21  1  0  0  0  0
 10 36  1  1  0  0  0
 11 12  1  0  0  0  0
 11 37  1  0  0  0  0
 11 38  1  0  0  0  0
 12 13  1  0  0  0  0
 12 20  2  0  0  0  0
 13 14  2  0  0  0  0
 13 39  1  0  0  0  0
 14 15  1  0  0  0  0
 14 40  1  0  0  0  0
 15 16  1  0  0  0  0
 15 18  2  0  0  0  0
 16 17  1  0  0  0  0
 17 41  1  0  0  0  0
 17 42  1  0  0  0  0
 17 43  1  0  0  0  0
 18 19  1  0  0  0  0
 18 20  1  0  0  0  0
 19 44  1  0  0  0  0
 21 22  2  0  0  0  0
 22 23  1  0  0  0  0
 22 45  1  0  0  0  0
 23 24  1  0  0  0  0
 23 46  1  1  0  0  0
 24 47  1  0  0  0  0
M  END
$$$$
