CHEBI:18372
 OpenBabel04252409283D

 46 47  0  0  1  0  0  0  0  0999 V2000
    9.0898   -6.0732    1.9936 N   0  0  0  0  0  0  0  0  0  0  0  0
    8.8617   -4.8308    1.5024 C   0  0  0  0  0  0  0  0  0  0  0  0
    9.4934   -4.4129    0.4565 N   0  0  0  0  0  0  0  0  0  0  0  0
    9.2290   -3.1486   -0.0075 C   0  0  0  0  0  0  0  0  0  0  0  0
    8.3739   -2.2788    0.5934 C   0  0  0  0  0  0  0  0  0  0  0  0
    7.7481   -2.7621    1.8618 C   0  0  0  0  0  0  0  0  0  0  0  0
    7.1399   -2.0295    2.6470 O   0  0  0  0  0  0  0  0  0  0  0  0
    7.9622   -4.0719    2.1725 N   0  0  0  0  0  0  0  0  0  0  0  0
    8.0638   -1.0053    0.1214 N   0  0  0  0  0  0  0  0  0  0  0  0
    8.8486   -0.5538   -0.8257 C   0  0  0  0  0  0  0  0  0  0  0  0
    8.5389    0.8160   -1.4368 C   0  0  2  0  0  0  0  0  0  0  0  0
    7.1460    1.1088   -1.3383 O   0  0  0  0  0  0  0  0  0  0  0  0
    9.3686    1.9304   -0.7901 C   0  0  2  0  0  0  0  0  0  0  0  0
   10.7673    1.6430   -0.9229 O   0  0  0  0  0  0  0  0  0  0  0  0
    9.0227    2.1721    0.6816 C   0  0  0  0  0  0  0  0  0  0  0  0
    9.8790    3.2024    1.1713 O   0  0  0  0  0  0  0  0  0  0  0  0
    9.5112    3.8968    2.5705 P   0  0  0  0  0  0  0  0  0  0  0  0
   10.5126    4.8710    3.0929 O   0  0  0  0  0  0  0  0  0  0  0  0
    8.1310    4.6457    2.2363 O   0  0  0  0  0  0  0  0  0  0  0  0
    9.0525    2.7549    3.5653 O   0  0  0  0  0  0  0  0  0  0  0  0
   10.0517    1.6811    4.1718 P   0  0  0  0  0  0  0  0  0  0  0  0
   11.2901    1.4226    3.3864 O   0  0  0  0  0  0  0  0  0  0  0  0
   10.3316    2.2322    5.6489 O   0  0  0  0  0  0  0  0  0  0  0  0
    9.1083    0.4339    4.4258 O   0  0  0  0  0  0  0  0  0  0  0  0
    9.6048   -1.0614    4.5043 P   0  0  0  0  0  0  0  0  0  0  0  0
   10.2535   -1.6676    3.3118 O   0  0  0  0  0  0  0  0  0  0  0  0
   10.5067   -1.1048    5.8235 O   0  0  0  0  0  0  0  0  0  0  0  0
    8.2989   -1.8466    4.9887 O   0  0  0  0  0  0  0  0  0  0  0  0
   10.0907   -1.2876   -1.3358 C   0  0  0  0  0  0  0  0  0  0  0  0
    9.9007   -2.7199   -1.1479 N   0  0  0  0  0  0  0  0  0  0  0  0
    9.9121   -6.4933    1.5699 H   0  0  0  0  0  0  0  0  0  0  0  0
    9.0848   -6.1689    3.0000 H   0  0  0  0  0  0  0  0  0  0  0  0
    7.5272   -4.4238    3.0079 H   0  0  0  0  0  0  0  0  0  0  0  0
    8.7839    0.7546   -2.5033 H   0  0  0  0  0  0  0  0  0  0  0  0
    6.7579    0.4027   -0.7799 H   0  0  0  0  0  0  0  0  0  0  0  0
    9.1920    2.8664   -1.3346 H   0  0  0  0  0  0  0  0  0  0  0  0
   11.2244    2.2952   -0.3521 H   0  0  0  0  0  0  0  0  0  0  0  0
    9.2167    1.2763    1.2781 H   0  0  0  0  0  0  0  0  0  0  0  0
    7.9748    2.4650    0.7968 H   0  0  0  0  0  0  0  0  0  0  0  0
    8.0941    5.4963    2.7126 H   0  0  0  0  0  0  0  0  0  0  0  0
   11.0578    1.7483    6.0862 H   0  0  0  0  0  0  0  0  0  0  0  0
   10.8913   -1.9942    5.9369 H   0  0  0  0  0  0  0  0  0  0  0  0
    7.6352   -1.8507    4.2555 H   0  0  0  0  0  0  0  0  0  0  0  0
   10.9615   -0.9481   -0.7662 H   0  0  0  0  0  0  0  0  0  0  0  0
   10.2481   -1.0730   -2.3960 H   0  0  0  0  0  0  0  0  0  0  0  0
   10.7277   -3.2934   -1.2894 H   0  0  0  0  0  0  0  0  0  0  0  0
  1  2  1  0  0  0  0
  1 31  1  0  0  0  0
  1 32  1  0  0  0  0
  2  3  2  0  0  0  0
  2  8  1  0  0  0  0
  3  4  1  0  0  0  0
  4  5  2  0  0  0  0
  4 30  1  0  0  0  0
  5  6  1  0  0  0  0
  5  9  1  0  0  0  0
  6  7  2  0  0  0  0
  6  8  1  0  0  0  0
  8 33  1  0  0  0  0
  9 10  2  0  0  0  0
 10 29  1  0  0  0  0
 11 12  1  0  0  0  0
 11 10  1  0  0  0  0
 11 34  1  1  0  0  0
 12 35  1  0  0  0  0
 13 15  1  0  0  0  0
 13 14  1  0  0  0  0
 13 11  1  0  0  0  0
 13 36  1  6  0  0  0
 14 37  1  0  0  0  0
 15 16  1  0  0  0  0
 15 38  1  0  0  0  0
 15 39  1  0  0  0  0
 16 17  1  0  0  0  0
 17 18  2  0  0  0  0
 17 19  1  0  0  0  0
 17 20  1  0  0  0  0
 19 40  1  0  0  0  0
 20 21  1  0  0  0  0
 21 22  2  0  0  0  0
 21 23  1  0  0  0  0
 21 24  1  0  0  0  0
 23 41  1  0  0  0  0
 24 25  1  0  0  0  0
 25 26  2  0  0  0  0
 25 27  1  0  0  0  0
 25 28  1  0  0  0  0
 27 42  1  0  0  0  0
 28 43  1  0  0  0  0
 29 30  1  0  0  0  0
 29 44  1  0  0  0  0
 29 45  1  0  0  0  0
 30 46  1  0  0  0  0
M  END
$$$$
