CHEBI:15654
 OpenBabel04242413013D

 51 51  0  0  1  0  0  0  0  0999 V2000
    0.8356   -4.3416   -1.9685 C   0  0  0  0  0  0  0  0  0  0  0  0
    2.3436   -4.4701   -2.1204 C   0  0  0  0  0  0  0  0  0  0  0  0
    3.0599   -3.1927   -1.6829 C   0  0  0  0  0  0  0  0  0  0  0  0
    4.5757   -3.3052   -1.8624 C   0  0  0  0  0  0  0  0  0  0  0  0
    5.2845   -2.0434   -1.3667 C   0  0  0  0  0  0  0  0  0  0  0  0
    6.7658   -2.1257   -1.5606 C   0  0  2  0  0  0  0  0  0  0  0  0
    7.4704   -0.8431   -1.1895 O   0  0  0  0  0  0  0  0  0  0  0  0
    7.4544   -1.2853   -2.4377 C   0  0  0  0  0  0  0  0  0  0  0  0
    7.8895   -0.9364   -3.6321 C   0  0  0  0  0  0  0  0  0  0  0  0
    8.6138    0.2881   -3.8830 C   0  0  0  0  0  0  0  0  0  0  0  0
    8.8858    0.8064   -5.0927 C   0  0  0  0  0  0  0  0  0  0  0  0
    8.5420    0.2290   -6.4405 C   0  0  0  0  0  0  0  0  0  0  0  0
    7.2339    0.7744   -7.0309 C   0  0  0  0  0  0  0  0  0  0  0  0
    6.0071    0.4154   -6.1869 C   0  0  0  0  0  0  0  0  0  0  0  0
    4.6996    0.8804   -6.8246 C   0  0  0  0  0  0  0  0  0  0  0  0
    3.4755    0.5661   -5.9554 C   0  0  0  0  0  0  0  0  0  0  0  0
    3.4627    1.1965   -4.5541 C   0  0  0  0  0  0  0  0  0  0  0  0
    3.6330    2.7160   -4.5174 C   0  0  0  0  0  0  0  0  0  0  0  0
    2.4558    3.4677   -5.0968 C   0  0  0  0  0  0  0  0  0  0  0  0
    1.4006    2.9711   -5.4547 O   0  0  0  0  0  0  0  0  0  0  0  0
    2.6819    4.8014   -5.1589 O   0  0  0  0  0  0  0  0  0  0  0  0
    0.3429   -5.2712   -2.2706 H   0  0  0  0  0  0  0  0  0  0  0  0
    0.4463   -3.5324   -2.5947 H   0  0  0  0  0  0  0  0  0  0  0  0
    0.5610   -4.1340   -0.9293 H   0  0  0  0  0  0  0  0  0  0  0  0
    2.5819   -4.6935   -3.1666 H   0  0  0  0  0  0  0  0  0  0  0  0
    2.6940   -5.3170   -1.5189 H   0  0  0  0  0  0  0  0  0  0  0  0
    2.8284   -2.9880   -0.6303 H   0  0  0  0  0  0  0  0  0  0  0  0
    2.6852   -2.3428   -2.2663 H   0  0  0  0  0  0  0  0  0  0  0  0
    4.8124   -3.4728   -2.9204 H   0  0  0  0  0  0  0  0  0  0  0  0
    4.9509   -4.1771   -1.3122 H   0  0  0  0  0  0  0  0  0  0  0  0
    5.0780   -1.9068   -0.2984 H   0  0  0  0  0  0  0  0  0  0  0  0
    4.8734   -1.1673   -1.8849 H   0  0  0  0  0  0  0  0  0  0  0  0
    7.2286   -3.0370   -1.2104 H   0  0  0  0  0  0  0  0  0  0  0  0
    7.6496   -1.5825   -4.4694 H   0  0  0  0  0  0  0  0  0  0  0  0
    8.9197    0.8526   -3.0014 H   0  0  0  0  0  0  0  0  0  0  0  0
    9.4089    1.7619   -5.1214 H   0  0  0  0  0  0  0  0  0  0  0  0
    8.5064   -0.8652   -6.4054 H   0  0  0  0  0  0  0  0  0  0  0  0
    9.3639    0.4720   -7.1260 H   0  0  0  0  0  0  0  0  0  0  0  0
    7.1119    0.3635   -8.0406 H   0  0  0  0  0  0  0  0  0  0  0  0
    7.3006    1.8643   -7.1373 H   0  0  0  0  0  0  0  0  0  0  0  0
    6.1080    0.8793   -5.2021 H   0  0  0  0  0  0  0  0  0  0  0  0
    5.9657   -0.6705   -6.0410 H   0  0  0  0  0  0  0  0  0  0  0  0
    4.5745    0.3766   -7.7912 H   0  0  0  0  0  0  0  0  0  0  0  0
    4.7434    1.9535   -7.0404 H   0  0  0  0  0  0  0  0  0  0  0  0
    3.3970   -0.5224   -5.8369 H   0  0  0  0  0  0  0  0  0  0  0  0
    2.5770    0.8744   -6.5018 H   0  0  0  0  0  0  0  0  0  0  0  0
    4.2551    0.7425   -3.9469 H   0  0  0  0  0  0  0  0  0  0  0  0
    2.5195    0.9242   -4.0635 H   0  0  0  0  0  0  0  0  0  0  0  0
    4.5436    3.0145   -5.0458 H   0  0  0  0  0  0  0  0  0  0  0  0
    3.7314    3.0298   -3.4715 H   0  0  0  0  0  0  0  0  0  0  0  0
    3.5580    5.0672   -4.8213 H   0  0  0  0  0  0  0  0  0  0  0  0
  1  2  1  0  0  0  0
  1 22  1  0  0  0  0
  1 23  1  0  0  0  0
  1 24  1  0  0  0  0
  2  3  1  0  0  0  0
  2 25  1  0  0  0  0
  2 26  1  0  0  0  0
  3  4  1  0  0  0  0
  3 27  1  0  0  0  0
  3 28  1  0  0  0  0
  4  5  1  0  0  0  0
  4 29  1  0  0  0  0
  4 30  1  0  0  0  0
  5  6  1  0  0  0  0
  5 31  1  0  0  0  0
  5 32  1  0  0  0  0
  6  7  1  0  0  0  0
  6  8  1  0  0  0  0
  6 33  1  1  0  0  0
  7  8  1  0  0  0  0
  8  9  2  0  0  0  0
  9 10  1  0  0  0  0
  9 34  1  0  0  0  0
 10 11  2  0  0  0  0
 10 35  1  0  0  0  0
 11 12  1  0  0  0  0
 11 36  1  0  0  0  0
 12 13  1  0  0  0  0
 12 37  1  0  0  0  0
 12 38  1  0  0  0  0
 13 14  1  0  0  0  0
 13 39  1  0  0  0  0
 13 40  1  0  0  0  0
 14 15  1  0  0  0  0
 14 41  1  0  0  0  0
 14 42  1  0  0  0  0
 15 16  1  0  0  0  0
 15 43  1  0  0  0  0
 15 44  1  0  0  0  0
 16 17  1  0  0  0  0
 16 45  1  0  0  0  0
 16 46  1  0  0  0  0
 17 18  1  0  0  0  0
 17 47  1  0  0  0  0
 17 48  1  0  0  0  0
 18 19  1  0  0  0  0
 18 49  1  0  0  0  0
 18 50  1  0  0  0  0
 19 20  2  0  0  0  0
 19 21  1  0  0  0  0
 21 51  1  0  0  0  0
M  END
$$$$
