CHEBI:16351
 OpenBabel04242414143D

 39 39  0  0  1  0  0  0  0  0999 V2000
    9.1620    7.2504    2.7656 O   0  0  0  0  0  0  0  0  0  0  0  0
    8.9577    6.1584    2.2528 C   0  0  0  0  0  0  0  0  0  0  0  0
    9.2420    4.9982    2.8884 O   0  0  0  0  0  0  0  0  0  0  0  0
    8.3852    5.9821    0.8451 C   0  0  0  0  0  0  0  0  0  0  0  0
    9.5209    6.1297   -0.1799 C   0  0  0  0  0  0  0  0  0  0  0  0
   10.6126    5.2309   -0.0142 O   0  0  0  0  0  0  0  0  0  0  0  0
   10.3865    3.6505   -0.0176 P   0  0  0  0  0  0  0  0  0  0  0  0
    9.7167    3.0771    1.1865 O   0  0  0  0  0  0  0  0  0  0  0  0
    9.7116    3.3201   -1.4224 O   0  0  0  0  0  0  0  0  0  0  0  0
   11.8677    3.1071   -0.2451 O   0  0  0  0  0  0  0  0  0  0  0  0
    7.7093    4.7559    0.5871 O   0  0  0  0  0  0  0  0  0  0  0  0
    6.4780    4.5974    1.2972 C   0  0  1  0  0  0  0  0  0  0  0  0
    5.4976    5.5446    0.8668 O   0  0  0  0  0  0  0  0  0  0  0  0
    5.0840    5.3951   -0.5004 C   0  0  2  0  0  0  0  0  0  0  0  0
    3.9612    6.4131   -0.7397 C   0  0  0  0  0  0  0  0  0  0  0  0
    4.4457    7.7283   -0.4637 O   0  0  0  0  0  0  0  0  0  0  0  0
    4.5992    3.9761   -0.8249 C   0  0  1  0  0  0  0  0  0  0  0  0
    4.3666    3.7962   -2.2296 O   0  0  0  0  0  0  0  0  0  0  0  0
    5.6200    2.9307   -0.3662 C   0  0  2  0  0  0  0  0  0  0  0  0
    5.0602    1.6156   -0.5233 O   0  0  0  0  0  0  0  0  0  0  0  0
    5.9954    3.1469    1.0987 C   0  0  2  0  0  0  0  0  0  0  0  0
    4.8595    2.8599    1.9263 O   0  0  0  0  0  0  0  0  0  0  0  0
    9.1340    4.1876    2.3273 H   0  0  0  0  0  0  0  0  0  0  0  0
    7.6758    6.8024    0.6798 H   0  0  0  0  0  0  0  0  0  0  0  0
    9.9400    7.1399   -0.1221 H   0  0  0  0  0  0  0  0  0  0  0  0
    9.1301    5.9920   -1.1943 H   0  0  0  0  0  0  0  0  0  0  0  0
    9.7283    2.3618   -1.5986 H   0  0  0  0  0  0  0  0  0  0  0  0
   12.4177    3.2138    0.5533 H   0  0  0  0  0  0  0  0  0  0  0  0
    6.6331    4.7676    2.3679 H   0  0  0  0  0  0  0  0  0  0  0  0
    5.9307    5.6714   -1.1418 H   0  0  0  0  0  0  0  0  0  0  0  0
    3.6082    6.3903   -1.7746 H   0  0  0  0  0  0  0  0  0  0  0  0
    3.1118    6.2301   -0.0723 H   0  0  0  0  0  0  0  0  0  0  0  0
    4.7604    7.6993    0.4607 H   0  0  0  0  0  0  0  0  0  0  0  0
    3.6418    3.7792   -0.3273 H   0  0  0  0  0  0  0  0  0  0  0  0
    5.1609    4.0838   -2.7161 H   0  0  0  0  0  0  0  0  0  0  0  0
    6.5114    2.9695   -1.0038 H   0  0  0  0  0  0  0  0  0  0  0  0
    4.5981    1.6236   -1.3861 H   0  0  0  0  0  0  0  0  0  0  0  0
    6.7834    2.4396    1.3817 H   0  0  0  0  0  0  0  0  0  0  0  0
    4.5291    1.9937    1.6113 H   0  0  0  0  0  0  0  0  0  0  0  0
  1  2  2  0  0  0  0
  2  3  1  0  0  0  0
  2  4  1  0  0  0  0
  3 23  1  0  0  0  0
  4  5  1  0  0  0  0
  4 11  1  0  0  0  0
  4 24  1  0  0  0  0
  5  6  1  0  0  0  0
  5 25  1  0  0  0  0
  5 26  1  0  0  0  0
  6  7  1  0  0  0  0
  7  8  2  0  0  0  0
  7  9  1  0  0  0  0
  7 10  1  0  0  0  0
  9 27  1  0  0  0  0
 10 28  1  0  0  0  0
 11 12  1  0  0  0  0
 12 13  1  0  0  0  0
 12 21  1  0  0  0  0
 12 29  1  1  0  0  0
 13 14  1  0  0  0  0
 14 17  1  0  0  0  0
 14 15  1  0  0  0  0
 14 30  1  6  0  0  0
 15 16  1  0  0  0  0
 15 31  1  0  0  0  0
 15 32  1  0  0  0  0
 16 33  1  0  0  0  0
 17 18  1  0  0  0  0
 17 19  1  0  0  0  0
 17 34  1  1  0  0  0
 18 35  1  0  0  0  0
 19 20  1  0  0  0  0
 19 21  1  0  0  0  0
 19 36  1  6  0  0  0
 20 37  1  0  0  0  0
 21 22  1  0  0  0  0
 21 38  1  1  0  0  0
 22 39  1  0  0  0  0
M  END
$$$$
