CHEBI:17450
 OpenBabel04242416363D

 20 20  0  0  0  0  0  0  0  0999 V2000
    4.1529    3.8301    0.1735 O   0  0  0  0  0  0  0  0  0  0  0  0
    4.2438    2.6136    0.2029 C   0  0  0  0  0  0  0  0  0  0  0  0
    4.1964    1.9001    1.3399 O   0  0  0  0  0  0  0  0  0  0  0  0
    4.3127    1.8188   -1.0380 C   0  0  0  0  0  0  0  0  0  0  0  0
    4.8997    0.6366   -1.2849 C   0  0  0  0  0  0  0  0  0  0  0  0
    5.6906   -0.2011   -0.3787 C   0  0  0  0  0  0  0  0  0  0  0  0
    5.4025   -1.5702   -0.2954 C   0  0  0  0  0  0  0  0  0  0  0  0
    6.1494   -2.4038    0.5417 C   0  0  0  0  0  0  0  0  0  0  0  0
    7.1910   -1.8651    1.2885 C   0  0  0  0  0  0  0  0  0  0  0  0
    7.9466   -2.6390    2.1169 O   0  0  0  0  0  0  0  0  0  0  0  0
    7.4988   -0.5126    1.2069 C   0  0  0  0  0  0  0  0  0  0  0  0
    6.7555    0.3192    0.3668 C   0  0  0  0  0  0  0  0  0  0  0  0
    4.2259    0.9347    1.2091 H   0  0  0  0  0  0  0  0  0  0  0  0
    3.8289    2.3328   -1.8666 H   0  0  0  0  0  0  0  0  0  0  0  0
    4.8146    0.2341   -2.2946 H   0  0  0  0  0  0  0  0  0  0  0  0
    4.5931   -2.0015   -0.8813 H   0  0  0  0  0  0  0  0  0  0  0  0
    5.9082   -3.4610    0.5931 H   0  0  0  0  0  0  0  0  0  0  0  0
    7.6378   -3.5580    2.0593 H   0  0  0  0  0  0  0  0  0  0  0  0
    8.3206   -0.1061    1.7906 H   0  0  0  0  0  0  0  0  0  0  0  0
    7.0224    1.3724    0.3032 H   0  0  0  0  0  0  0  0  0  0  0  0
  1  2  2  0  0  0  0
  2  3  1  0  0  0  0
  2  4  1  0  0  0  0
  3 13  1  0  0  0  0
  4  5  2  0  0  0  0
  4 14  1  0  0  0  0
  5  6  1  0  0  0  0
  5 15  1  0  0  0  0
  6  7  1  0  0  0  0
  6 12  2  0  0  0  0
  7  8  2  0  0  0  0
  7 16  1  0  0  0  0
  8  9  1  0  0  0  0
  8 17  1  0  0  0  0
  9 10  1  0  0  0  0
  9 11  2  0  0  0  0
 10 18  1  0  0  0  0
 11 12  1  0  0  0  0
 11 19  1  0  0  0  0
 12 20  1  0  0  0  0
M  END
$$$$
