CHEBI:17277
 OpenBabel04242416113D

142144  0  0  1  0  0  0  0  0999 V2000
   14.5229   -0.2616   -7.0952 C   0  0  0  0  0  0  0  0  0  0  0  0
   14.8680   -1.0848   -5.8819 C   0  0  0  0  0  0  0  0  0  0  0  0
   15.8924   -0.8937   -5.2340 O   0  0  0  0  0  0  0  0  0  0  0  0
   13.9888   -2.0556   -5.4886 N   0  0  0  0  0  0  0  0  0  0  0  0
   12.8212   -2.5401   -6.2339 C   0  0  1  0  0  0  0  0  0  0  0  0
   13.1635   -3.7628   -7.1100 C   0  0  0  0  0  0  0  0  0  0  0  0
   13.4046   -4.8995   -6.3115 O   0  0  0  0  0  0  0  0  0  0  0  0
   14.3082   -6.0713   -6.9275 P   0  0  0  0  0  0  0  0  0  0  0  0
   15.7675   -5.9206   -6.6449 O   0  0  0  0  0  0  0  0  0  0  0  0
   13.6828   -7.3827   -6.2552 O   0  0  0  0  0  0  0  0  0  0  0  0
   13.9297   -6.1782   -8.4588 O   0  0  0  0  0  0  0  0  0  0  0  0
   14.2598   -7.3796   -9.4298 P   0  0  0  0  0  0  0  0  0  0  0  0
   14.5471   -7.0151  -10.8483 O   0  0  0  0  0  0  0  0  0  0  0  0
   15.5093   -8.1148   -8.7456 O   0  0  0  0  0  0  0  0  0  0  0  0
   13.0666   -8.4240   -9.2168 O   0  0  0  0  0  0  0  0  0  0  0  0
   13.1366   -9.6530   -9.9217 C   0  0  0  0  0  0  0  0  0  0  0  0
   11.9739  -10.5544   -9.5206 C   0  0  1  0  0  0  0  0  0  0  0  0
   11.9779  -10.7945   -8.0991 O   0  0  0  0  0  0  0  0  0  0  0  0
   10.6230  -11.1272   -7.7280 C   0  0  1  0  0  0  0  0  0  0  0  0
   10.3424  -10.5767   -6.3963 N   0  0  0  0  0  0  0  0  0  0  0  0
   11.0011  -11.1642   -5.3250 C   0  0  0  0  0  0  0  0  0  0  0  0
   10.7629  -10.8210   -4.0578 C   0  0  0  0  0  0  0  0  0  0  0  0
    9.7492   -9.7949   -3.7890 C   0  0  0  0  0  0  0  0  0  0  0  0
    9.3874   -9.5434   -2.6444 O   0  0  0  0  0  0  0  0  0  0  0  0
    9.2459   -9.1664   -4.8878 N   0  0  0  0  0  0  0  0  0  0  0  0
    9.4942   -9.4953   -6.1978 C   0  0  0  0  0  0  0  0  0  0  0  0
    8.9334   -8.8631   -7.0874 O   0  0  0  0  0  0  0  0  0  0  0  0
    9.7018  -10.8091   -8.9293 C   0  0  2  0  0  0  0  0  0  0  0  0
    9.3616  -12.0252   -9.6454 O   0  0  0  0  0  0  0  0  0  0  0  0
   10.6001   -9.9745   -9.8301 C   0  0  2  0  0  0  0  0  0  0  0  0
   10.2545  -10.1233  -11.2052 O   0  0  0  0  0  0  0  0  0  0  0  0
   12.1195   -4.0064   -8.0500 O   0  0  0  0  0  0  0  0  0  0  0  0
   10.7714   -3.8298   -7.5771 C   0  0  2  0  0  0  0  0  0  0  0  0
   10.1972   -2.5810   -8.2718 C   0  0  0  0  0  0  0  0  0  0  0  0
    8.8412   -2.3320   -7.9343 O   0  0  0  0  0  0  0  0  0  0  0  0
   10.6040   -3.8038   -6.0394 C   0  0  1  0  0  0  0  0  0  0  0  0
   10.7654   -5.1471   -5.5502 O   0  0  0  0  0  0  0  0  0  0  0  0
   11.6057   -2.8534   -5.3281 C   0  0  2  0  0  0  0  0  0  0  0  0
   10.8615   -1.6619   -4.9840 O   0  0  0  0  0  0  0  0  0  0  0  0
   11.4760   -0.7177   -4.1006 C   0  0  2  0  0  0  0  0  0  0  0  0
   12.0332   -1.3272   -2.8145 C   0  0  0  0  0  0  0  0  0  0  0  0
   10.4177    0.3520   -3.7307 C   0  0  0  0  0  0  0  0  0  0  0  0
   10.1431    0.6570   -2.5741 O   0  0  0  0  0  0  0  0  0  0  0  0
    9.8765    1.0358   -4.8112 N   0  0  0  0  0  0  0  0  0  0  0  0
    8.7466    1.9621   -4.6118 C   0  0  1  0  0  0  0  0  0  0  0  0
    7.4535    1.2372   -4.2538 C   0  0  0  0  0  0  0  0  0  0  0  0
    9.0792    3.0973   -3.6034 C   0  0  0  0  0  0  0  0  0  0  0  0
    8.3392    3.4339   -2.6841 O   0  0  0  0  0  0  0  0  0  0  0  0
   10.2482    3.7864   -3.8949 N   0  0  0  0  0  0  0  0  0  0  0  0
   10.7921    4.8032   -2.9763 C   0  0  2  0  0  0  0  0  0  0  0  0
   11.0737    6.1440   -3.6739 C   0  0  0  0  0  0  0  0  0  0  0  0
    9.8101    6.8935   -4.0938 C   0  0  0  0  0  0  0  0  0  0  0  0
    9.0878    6.2244   -5.2441 C   0  0  0  0  0  0  0  0  0  0  0  0
    9.6306    5.4381   -6.0168 O   0  0  0  0  0  0  0  0  0  0  0  0
    7.7663    6.5802   -5.3386 N   0  0  0  0  0  0  0  0  0  0  0  0
    6.8704    5.9807   -6.3133 C   0  0  1  0  0  0  0  0  0  0  0  0
    5.7541    5.1660   -5.6414 C   0  0  0  0  0  0  0  0  0  0  0  0
    4.8425    5.9495   -4.6908 C   0  0  0  0  0  0  0  0  0  0  0  0
    3.7876    5.0416   -4.0518 C   0  0  0  0  0  0  0  0  0  0  0  0
    2.8294    5.8547   -3.1816 C   0  0  0  0  0  0  0  0  0  0  0  0
    1.8152    4.9892   -2.5954 N   0  0  0  0  0  0  0  0  0  0  0  0
    6.3428    7.0823   -7.2509 C   0  0  0  0  0  0  0  0  0  0  0  0
    5.5570    7.9649   -6.9071 O   0  0  0  0  0  0  0  0  0  0  0  0
    6.9026    7.0716   -8.5099 N   0  0  0  0  0  0  0  0  0  0  0  0
    6.4251    7.9773   -9.5426 C   0  0  2  0  0  0  0  0  0  0  0  0
    6.8152    7.4728  -10.9250 C   0  0  0  0  0  0  0  0  0  0  0  0
    6.9716    9.4012   -9.3239 C   0  0  0  0  0  0  0  0  0  0  0  0
    8.0551    9.7864   -9.7474 O   0  0  0  0  0  0  0  0  0  0  0  0
    6.1216   10.2103   -8.5786 N   0  0  0  0  0  0  0  0  0  0  0  0
    6.5292   11.5907   -8.2613 C   0  0  2  0  0  0  0  0  0  0  0  0
    5.6905   12.1408   -7.1141 C   0  0  0  0  0  0  0  0  0  0  0  0
    6.3166   12.5109   -9.4794 C   0  0  0  0  0  0  0  0  0  0  0  0
    6.7272   13.6588   -9.5614 O   0  0  0  0  0  0  0  0  0  0  0  0
    5.5005   11.9645  -10.4186 O   0  0  0  0  0  0  0  0  0  0  0  0
   12.1113    4.2699   -2.3871 C   0  0  0  0  0  0  0  0  0  0  0  0
   12.8092    4.8781   -1.5877 O   0  0  0  0  0  0  0  0  0  0  0  0
   12.4688    3.0631   -2.8953 O   0  0  0  0  0  0  0  0  0  0  0  0
   15.2978    0.4920   -7.2603 H   0  0  0  0  0  0  0  0  0  0  0  0
   13.5711    0.2557   -6.9443 H   0  0  0  0  0  0  0  0  0  0  0  0
   14.4702   -0.9018   -7.9801 H   0  0  0  0  0  0  0  0  0  0  0  0
   14.3452   -2.6229   -4.7237 H   0  0  0  0  0  0  0  0  0  0  0  0
   12.5263   -1.7246   -6.8963 H   0  0  0  0  0  0  0  0  0  0  0  0
   14.0695   -3.5438   -7.6876 H   0  0  0  0  0  0  0  0  0  0  0  0
   14.2811   -8.1503   -6.3254 H   0  0  0  0  0  0  0  0  0  0  0  0
   16.3513   -7.7868   -9.1213 H   0  0  0  0  0  0  0  0  0  0  0  0
   14.0812  -10.1445   -9.6652 H   0  0  0  0  0  0  0  0  0  0  0  0
   13.1208   -9.4571  -10.9989 H   0  0  0  0  0  0  0  0  0  0  0  0
   12.1057  -11.5209  -10.0252 H   0  0  0  0  0  0  0  0  0  0  0  0
   10.6120  -12.2184   -7.5991 H   0  0  0  0  0  0  0  0  0  0  0  0
   11.7354  -11.9311   -5.5594 H   0  0  0  0  0  0  0  0  0  0  0  0
   11.2617  -11.2755   -3.2128 H   0  0  0  0  0  0  0  0  0  0  0  0
    8.5674   -8.4385   -4.7289 H   0  0  0  0  0  0  0  0  0  0  0  0
    8.7453  -10.3333   -8.7204 H   0  0  0  0  0  0  0  0  0  0  0  0
    8.6249  -12.4348   -9.1533 H   0  0  0  0  0  0  0  0  0  0  0  0
   10.5407   -8.9167   -9.5535 H   0  0  0  0  0  0  0  0  0  0  0  0
    9.8271  -11.0036  -11.2701 H   0  0  0  0  0  0  0  0  0  0  0  0
   10.2133   -4.6968   -7.9531 H   0  0  0  0  0  0  0  0  0  0  0  0
   10.2785   -2.6843   -9.3602 H   0  0  0  0  0  0  0  0  0  0  0  0
   10.7663   -1.6837   -8.0184 H   0  0  0  0  0  0  0  0  0  0  0  0
    8.2950   -2.9319   -8.4741 H   0  0  0  0  0  0  0  0  0  0  0  0
    9.5727   -3.5320   -5.7880 H   0  0  0  0  0  0  0  0  0  0  0  0
   10.5715   -5.1475   -4.5965 H   0  0  0  0  0  0  0  0  0  0  0  0
   11.9355   -3.3445   -4.4056 H   0  0  0  0  0  0  0  0  0  0  0  0
   12.2691   -0.1877   -4.6380 H   0  0  0  0  0  0  0  0  0  0  0  0
   11.2774   -1.9381   -2.3096 H   0  0  0  0  0  0  0  0  0  0  0  0
   12.3693   -0.5482   -2.1213 H   0  0  0  0  0  0  0  0  0  0  0  0
   12.8940   -1.9722   -3.0066 H   0  0  0  0  0  0  0  0  0  0  0  0
    9.8732    0.4968   -5.6722 H   0  0  0  0  0  0  0  0  0  0  0  0
    8.5983    2.4543   -5.5815 H   0  0  0  0  0  0  0  0  0  0  0  0
    7.5413    0.6801   -3.3157 H   0  0  0  0  0  0  0  0  0  0  0  0
    7.1787    0.5267   -5.0408 H   0  0  0  0  0  0  0  0  0  0  0  0
    6.6272    1.9475   -4.1387 H   0  0  0  0  0  0  0  0  0  0  0  0
   10.4772    3.8741   -4.8861 H   0  0  0  0  0  0  0  0  0  0  0  0
   10.1062    4.9411   -2.1332 H   0  0  0  0  0  0  0  0  0  0  0  0
   11.6264    6.7944   -2.9830 H   0  0  0  0  0  0  0  0  0  0  0  0
   11.7316    5.9885   -4.5384 H   0  0  0  0  0  0  0  0  0  0  0  0
   10.0845    7.9012   -4.4290 H   0  0  0  0  0  0  0  0  0  0  0  0
    9.1342    6.9990   -3.2376 H   0  0  0  0  0  0  0  0  0  0  0  0
    7.3950    7.3028   -4.7315 H   0  0  0  0  0  0  0  0  0  0  0  0
    7.4413    5.2708   -6.9252 H   0  0  0  0  0  0  0  0  0  0  0  0
    6.2174    4.3450   -5.0784 H   0  0  0  0  0  0  0  0  0  0  0  0
    5.1378    4.7044   -6.4231 H   0  0  0  0  0  0  0  0  0  0  0  0
    4.3259    6.7449   -5.2358 H   0  0  0  0  0  0  0  0  0  0  0  0
    5.4351    6.4244   -3.9010 H   0  0  0  0  0  0  0  0  0  0  0  0
    4.2831    4.2720   -3.4467 H   0  0  0  0  0  0  0  0  0  0  0  0
    3.2255    4.5233   -4.8389 H   0  0  0  0  0  0  0  0  0  0  0  0
    2.3395    6.6302   -3.7810 H   0  0  0  0  0  0  0  0  0  0  0  0
    3.3830    6.3547   -2.3797 H   0  0  0  0  0  0  0  0  0  0  0  0
    1.2602    4.5565   -3.3322 H   0  0  0  0  0  0  0  0  0  0  0  0
    1.1684    5.5515   -2.0435 H   0  0  0  0  0  0  0  0  0  0  0  0
    7.8298    6.6691   -8.6149 H   0  0  0  0  0  0  0  0  0  0  0  0
    5.3298    8.0141   -9.4826 H   0  0  0  0  0  0  0  0  0  0  0  0
    7.9030    7.4317  -11.0486 H   0  0  0  0  0  0  0  0  0  0  0  0
    6.4163    8.1350  -11.7012 H   0  0  0  0  0  0  0  0  0  0  0  0
    6.4212    6.4658  -11.0976 H   0  0  0  0  0  0  0  0  0  0  0  0
    5.6301    9.6905   -7.8438 H   0  0  0  0  0  0  0  0  0  0  0  0
    7.5950   11.5950   -8.0090 H   0  0  0  0  0  0  0  0  0  0  0  0
    4.6195   12.0700   -7.3385 H   0  0  0  0  0  0  0  0  0  0  0  0
    5.9185   13.1956   -6.9254 H   0  0  0  0  0  0  0  0  0  0  0  0
    5.8751   11.5804   -6.1921 H   0  0  0  0  0  0  0  0  0  0  0  0
    5.2520   11.0646  -10.1259 H   0  0  0  0  0  0  0  0  0  0  0  0
   11.7128    2.7361   -3.4287 H   0  0  0  0  0  0  0  0  0  0  0  0
  1  2  1  0  0  0  0
  1 78  1  0  0  0  0
  1 79  1  0  0  0  0
  1 80  1  0  0  0  0
  2  3  2  0  0  0  0
  2  4  1  0  0  0  0
  4  5  1  0  0  0  0
  4 81  1  0  0  0  0
  5  6  1  0  0  0  0
  5 38  1  0  0  0  0
  5 82  1  6  0  0  0
  6  7  1  0  0  0  0
  6 32  1  0  0  0  0
  6 83  1  0  0  0  0
  7  8  1  0  0  0  0
  8  9  2  0  0  0  0
  8 10  1  0  0  0  0
  8 11  1  0  0  0  0
 10 84  1  0  0  0  0
 11 12  1  0  0  0  0
 12 13  2  0  0  0  0
 12 14  1  0  0  0  0
 12 15  1  0  0  0  0
 14 85  1  0  0  0  0
 15 16  1  0  0  0  0
 16 17  1  0  0  0  0
 16 86  1  0  0  0  0
 16 87  1  0  0  0  0
 17 18  1  0  0  0  0
 17 30  1  0  0  0  0
 17 88  1  6  0  0  0
 18 19  1  0  0  0  0
 19 20  1  0  0  0  0
 19 28  1  0  0  0  0
 19 89  1  1  0  0  0
 20 21  1  0  0  0  0
 20 26  1  0  0  0  0
 21 22  2  0  0  0  0
 21 90  1  0  0  0  0
 22 23  1  0  0  0  0
 22 91  1  0  0  0  0
 23 24  2  0  0  0  0
 23 25  1  0  0  0  0
 25 26  1  0  0  0  0
 25 92  1  0  0  0  0
 26 27  2  0  0  0  0
 28 29  1  0  0  0  0
 28 30  1  0  0  0  0
 28 93  1  1  0  0  0
 29 94  1  0  0  0  0
 30 31  1  0  0  0  0
 30 95  1  1  0  0  0
 31 96  1  0  0  0  0
 32 33  1  0  0  0  0
 33 34  1  0  0  0  0
 33 36  1  0  0  0  0
 33 97  1  6  0  0  0
 34 35  1  0  0  0  0
 34 98  1  0  0  0  0
 34 99  1  0  0  0  0
 35100  1  0  0  0  0
 36 37  1  0  0  0  0
 36 38  1  0  0  0  0
 36101  1  1  0  0  0
 37102  1  0  0  0  0
 38 39  1  0  0  0  0
 38103  1  1  0  0  0
 40 42  1  0  0  0  0
 40 41  1  0  0  0  0
 40 39  1  0  0  0  0
 40104  1  6  0  0  0
 41105  1  0  0  0  0
 41106  1  0  0  0  0
 41107  1  0  0  0  0
 42 43  2  0  0  0  0
 42 44  1  0  0  0  0
 44 45  1  0  0  0  0
 44108  1  0  0  0  0
 45 46  1  0  0  0  0
 45 47  1  0  0  0  0
 45109  1  6  0  0  0
 46110  1  0  0  0  0
 46111  1  0  0  0  0
 46112  1  0  0  0  0
 47 48  2  0  0  0  0
 47 49  1  0  0  0  0
 49113  1  0  0  0  0
 50 75  1  0  0  0  0
 50 51  1  0  0  0  0
 50 49  1  0  0  0  0
 50114  1  1  0  0  0
 51 52  1  0  0  0  0
 51115  1  0  0  0  0
 51116  1  0  0  0  0
 52 53  1  0  0  0  0
 52117  1  0  0  0  0
 52118  1  0  0  0  0
 53 54  2  0  0  0  0
 53 55  1  0  0  0  0
 55 56  1  0  0  0  0
 55119  1  0  0  0  0
 56 57  1  0  0  0  0
 56 62  1  0  0  0  0
 56120  1  6  0  0  0
 57 58  1  0  0  0  0
 57121  1  0  0  0  0
 57122  1  0  0  0  0
 58 59  1  0  0  0  0
 58123  1  0  0  0  0
 58124  1  0  0  0  0
 59 60  1  0  0  0  0
 59125  1  0  0  0  0
 59126  1  0  0  0  0
 60 61  1  0  0  0  0
 60127  1  0  0  0  0
 60128  1  0  0  0  0
 61129  1  0  0  0  0
 61130  1  0  0  0  0
 62 63  2  0  0  0  0
 62 64  1  0  0  0  0
 64131  1  0  0  0  0
 65 67  1  0  0  0  0
 65 66  1  0  0  0  0
 65 64  1  0  0  0  0
 65132  1  1  0  0  0
 66133  1  0  0  0  0
 66134  1  0  0  0  0
 66135  1  0  0  0  0
 67 68  2  0  0  0  0
 67 69  1  0  0  0  0
 69136  1  0  0  0  0
 70 72  1  0  0  0  0
 70 71  1  0  0  0  0
 70 69  1  0  0  0  0
 70137  1  1  0  0  0
 71138  1  0  0  0  0
 71139  1  0  0  0  0
 71140  1  0  0  0  0
 72 73  2  0  0  0  0
 72 74  1  0  0  0  0
 74141  1  0  0  0  0
 75 76  2  0  0  0  0
 75 77  1  0  0  0  0
 77142  1  0  0  0  0
M  END
$$$$
