CHEBI:16631
 OpenBabel04242414573D

 72 76  0  0  1  0  0  0  0  0999 V2000
   -0.7524    2.9623    0.0090 O   0  0  0  0  0  0  0  0  0  0  0  0
   -0.5731    1.7514    0.0512 C   0  0  0  0  0  0  0  0  0  0  0  0
   -1.7431    0.8706    0.1780 C   0  0  0  0  0  0  0  0  0  0  0  0
   -1.5673   -0.4477    0.3268 C   0  0  0  0  0  0  0  0  0  0  0  0
   -2.7080   -1.3823    0.4430 C   0  0  0  0  0  0  0  0  0  0  0  0
   -2.6097   -2.6768   -0.0965 C   0  0  0  0  0  0  0  0  0  0  0  0
   -3.6687   -3.5843    0.0072 C   0  0  0  0  0  0  0  0  0  0  0  0
   -4.8353   -3.1999    0.6567 C   0  0  0  0  0  0  0  0  0  0  0  0
   -5.8918   -4.0504    0.7872 O   0  0  0  0  0  0  0  0  0  0  0  0
   -4.9581   -1.9289    1.2009 C   0  0  0  0  0  0  0  0  0  0  0  0
   -3.8971   -1.0250    1.1000 C   0  0  0  0  0  0  0  0  0  0  0  0
   -0.3264   -1.0578    0.3654 O   0  0  0  0  0  0  0  0  0  0  0  0
    0.8051   -0.3010    0.1634 C   0  0  0  0  0  0  0  0  0  0  0  0
    2.0363   -0.9862    0.1407 C   0  0  0  0  0  0  0  0  0  0  0  0
    2.1263   -2.4847    0.4257 C   0  0  2  0  0  0  0  0  0  0  0  0
    3.0199   -2.5736    1.5403 O   0  0  0  0  0  0  0  0  0  0  0  0
    3.5493   -3.8699    1.8166 C   0  0  2  0  0  0  0  0  0  0  0  0
    4.4536   -3.7089    3.0454 C   0  0  0  0  0  0  0  0  0  0  0  0
    5.3884   -2.6465    2.8315 O   0  0  0  0  0  0  0  0  0  0  0  0
    4.3201   -4.3734    0.6007 C   0  0  1  0  0  0  0  0  0  0  0  0
    4.9170   -5.6479    0.8614 O   0  0  0  0  0  0  0  0  0  0  0  0
    3.3449   -4.5326   -0.5630 C   0  0  2  0  0  0  0  0  0  0  0  0
    4.1027   -4.9494   -1.7203 O   0  0  0  0  0  0  0  0  0  0  0  0
    2.5224   -3.2685   -0.8616 C   0  0  1  0  0  0  0  0  0  0  0  0
    1.2805   -3.6306   -1.5227 O   0  0  0  0  0  0  0  0  0  0  0  0
    1.4211   -4.1089   -2.8672 C   0  0  2  0  0  0  0  0  0  0  0  0
    1.9622   -3.0888   -3.7016 O   0  0  0  0  0  0  0  0  0  0  0  0
    2.0602   -3.4949   -5.0747 C   0  0  2  0  0  0  0  0  0  0  0  0
    2.7444   -2.3784   -5.8749 C   0  0  0  0  0  0  0  0  0  0  0  0
    3.0246   -2.7686   -7.2140 O   0  0  0  0  0  0  0  0  0  0  0  0
    0.6625   -3.8070   -5.6354 C   0  0  1  0  0  0  0  0  0  0  0  0
    0.7226   -4.2131   -7.0063 O   0  0  0  0  0  0  0  0  0  0  0  0
    0.0268   -4.9165   -4.7983 C   0  0  2  0  0  0  0  0  0  0  0  0
   -1.3050   -5.1591   -5.2755 O   0  0  0  0  0  0  0  0  0  0  0  0
    0.0032   -4.5129   -3.3268 C   0  0  1  0  0  0  0  0  0  0  0  0
   -0.5105   -5.6118   -2.5543 O   0  0  0  0  0  0  0  0  0  0  0  0
    3.2008   -0.2357   -0.1122 C   0  0  0  0  0  0  0  0  0  0  0  0
    4.4084   -0.8805   -0.1799 O   0  0  0  0  0  0  0  0  0  0  0  0
    3.1578    1.1440   -0.3038 C   0  0  0  0  0  0  0  0  0  0  0  0
    1.9328    1.8054   -0.2486 C   0  0  0  0  0  0  0  0  0  0  0  0
    1.9094    3.1567   -0.4427 O   0  0  0  0  0  0  0  0  0  0  0  0
    0.7504    1.0905   -0.0166 C   0  0  0  0  0  0  0  0  0  0  0  0
   -2.7088    1.3574    0.1362 H   0  0  0  0  0  0  0  0  0  0  0  0
   -1.7042   -2.9873   -0.6136 H   0  0  0  0  0  0  0  0  0  0  0  0
   -3.5642   -4.5750   -0.4236 H   0  0  0  0  0  0  0  0  0  0  0  0
   -5.6595   -4.9028    0.3842 H   0  0  0  0  0  0  0  0  0  0  0  0
   -5.8750   -1.6408    1.7082 H   0  0  0  0  0  0  0  0  0  0  0  0
   -4.0152   -0.0434    1.5533 H   0  0  0  0  0  0  0  0  0  0  0  0
    1.1619   -2.8614    0.7855 H   0  0  0  0  0  0  0  0  0  0  0  0
    2.7352   -4.5587    2.0754 H   0  0  0  0  0  0  0  0  0  0  0  0
    5.0014   -4.6244    3.2847 H   0  0  0  0  0  0  0  0  0  0  0  0
    3.8521   -3.4286    3.9169 H   0  0  0  0  0  0  0  0  0  0  0  0
    4.8503   -1.9152    2.4674 H   0  0  0  0  0  0  0  0  0  0  0  0
    5.1232   -3.6813    0.3200 H   0  0  0  0  0  0  0  0  0  0  0  0
    5.2348   -5.9761   -0.0032 H   0  0  0  0  0  0  0  0  0  0  0  0
    2.6683   -5.3714   -0.3556 H   0  0  0  0  0  0  0  0  0  0  0  0
    4.5705   -4.1682   -2.0713 H   0  0  0  0  0  0  0  0  0  0  0  0
    3.0870   -2.6248   -1.5450 H   0  0  0  0  0  0  0  0  0  0  0  0
    2.0574   -4.9990   -2.8785 H   0  0  0  0  0  0  0  0  0  0  0  0
    2.6931   -4.3904   -5.1479 H   0  0  0  0  0  0  0  0  0  0  0  0
    3.6921   -2.1042   -5.3991 H   0  0  0  0  0  0  0  0  0  0  0  0
    2.1272   -1.4735   -5.8906 H   0  0  0  0  0  0  0  0  0  0  0  0
    2.2257   -3.2290   -7.5522 H   0  0  0  0  0  0  0  0  0  0  0  0
    0.0276   -2.9128   -5.5931 H   0  0  0  0  0  0  0  0  0  0  0  0
   -0.1669   -4.5802   -7.1989 H   0  0  0  0  0  0  0  0  0  0  0  0
    0.5682   -5.8608   -4.9371 H   0  0  0  0  0  0  0  0  0  0  0  0
   -1.7040   -5.7680   -4.6211 H   0  0  0  0  0  0  0  0  0  0  0  0
   -0.6972   -3.6818   -3.1791 H   0  0  0  0  0  0  0  0  0  0  0  0
   -0.3403   -5.3796   -1.6206 H   0  0  0  0  0  0  0  0  0  0  0  0
    5.1259   -0.2233   -0.1545 H   0  0  0  0  0  0  0  0  0  0  0  0
    4.0697    1.6988   -0.4992 H   0  0  0  0  0  0  0  0  0  0  0  0
    2.8045    3.5113   -0.5574 H   0  0  0  0  0  0  0  0  0  0  0  0
  1  2  2  0  0  0  0
  2  3  1  0  0  0  0
  2 42  1  0  0  0  0
  3  4  2  0  0  0  0
  3 43  1  0  0  0  0
  4  5  1  0  0  0  0
  4 12  1  0  0  0  0
  5  6  1  0  0  0  0
  5 11  2  0  0  0  0
  6  7  2  0  0  0  0
  6 44  1  0  0  0  0
  7  8  1  0  0  0  0
  7 45  1  0  0  0  0
  8  9  1  0  0  0  0
  8 10  2  0  0  0  0
  9 46  1  0  0  0  0
 10 11  1  0  0  0  0
 10 47  1  0  0  0  0
 11 48  1  0  0  0  0
 12 13  1  0  0  0  0
 13 14  1  0  0  0  0
 13 42  2  0  0  0  0
 14 15  1  0  0  0  0
 14 37  2  0  0  0  0
 15 16  1  0  0  0  0
 15 24  1  0  0  0  0
 15 49  1  1  0  0  0
 16 17  1  0  0  0  0
 17 18  1  0  0  0  0
 17 20  1  0  0  0  0
 17 50  1  1  0  0  0
 18 19  1  0  0  0  0
 18 51  1  0  0  0  0
 18 52  1  0  0  0  0
 19 53  1  0  0  0  0
 20 21  1  0  0  0  0
 20 22  1  0  0  0  0
 20 54  1  6  0  0  0
 21 55  1  0  0  0  0
 22 23  1  0  0  0  0
 22 24  1  0  0  0  0
 22 56  1  1  0  0  0
 23 57  1  0  0  0  0
 24 25  1  0  0  0  0
 24 58  1  6  0  0  0
 25 26  1  0  0  0  0
 26 27  1  0  0  0  0
 26 35  1  0  0  0  0
 26 59  1  6  0  0  0
 27 28  1  0  0  0  0
 28 29  1  0  0  0  0
 28 31  1  0  0  0  0
 28 60  1  6  0  0  0
 29 30  1  0  0  0  0
 29 61  1  0  0  0  0
 29 62  1  0  0  0  0
 30 63  1  0  0  0  0
 31 32  1  0  0  0  0
 31 33  1  0  0  0  0
 31 64  1  1  0  0  0
 32 65  1  0  0  0  0
 33 34  1  0  0  0  0
 33 35  1  0  0  0  0
 33 66  1  6  0  0  0
 34 67  1  0  0  0  0
 35 36  1  0  0  0  0
 35 68  1  1  0  0  0
 36 69  1  0  0  0  0
 37 38  1  0  0  0  0
 37 39  1  0  0  0  0
 38 70  1  0  0  0  0
 39 40  2  0  0  0  0
 39 71  1  0  0  0  0
 40 41  1  0  0  0  0
 40 42  1  0  0  0  0
 41 72  1  0  0  0  0
M  END
$$$$
