CHEBI:15567
 OpenBabel04242412483D

 21 21  0  0  1  0  0  0  0  0999 V2000
    4.5539   -0.9017   -0.7632 O   0  0  0  0  0  0  0  0  0  0  0  0
    4.2697    0.1043   -1.3957 C   0  0  0  0  0  0  0  0  0  0  0  0
    5.0727    0.5857   -2.3663 O   0  0  0  0  0  0  0  0  0  0  0  0
    3.0056    0.9016   -1.1517 C   0  0  1  0  0  0  0  0  0  0  0  0
    3.3149    2.3158   -0.6510 C   0  0  0  0  0  0  0  0  0  0  0  0
    2.0227    3.0588   -0.3191 C   0  0  0  0  0  0  0  0  0  0  0  0
    1.0792    3.1254   -1.5145 C   0  0  2  0  0  0  0  0  0  0  0  0
   -0.1473    3.7034   -1.0947 O   0  0  0  0  0  0  0  0  0  0  0  0
    0.8655    1.7339   -2.1143 C   0  0  0  0  0  0  0  0  0  0  0  0
   -0.2509    1.3635   -2.4798 O   0  0  0  0  0  0  0  0  0  0  0  0
    2.1056    0.9126   -2.3828 C   0  0  0  0  0  0  0  0  0  0  0  0
    4.7802    1.4023   -2.8080 H   0  0  0  0  0  0  0  0  0  0  0  0
    2.4672    0.3785   -0.3478 H   0  0  0  0  0  0  0  0  0  0  0  0
    3.8784    2.8807   -1.4035 H   0  0  0  0  0  0  0  0  0  0  0  0
    3.9495    2.2668    0.2421 H   0  0  0  0  0  0  0  0  0  0  0  0
    2.2520    4.0737    0.0273 H   0  0  0  0  0  0  0  0  0  0  0  0
    1.5198    2.5641    0.5225 H   0  0  0  0  0  0  0  0  0  0  0  0
    1.5000    3.7609   -2.3016 H   0  0  0  0  0  0  0  0  0  0  0  0
   -0.8455    3.3142   -1.6603 H   0  0  0  0  0  0  0  0  0  0  0  0
    2.6078    1.3423   -3.2564 H   0  0  0  0  0  0  0  0  0  0  0  0
    1.8076   -0.1097   -2.6416 H   0  0  0  0  0  0  0  0  0  0  0  0
  1  2  2  0  0  0  0
  2  3  1  0  0  0  0
  3 12  1  0  0  0  0
  4  5  1  0  0  0  0
  4 11  1  0  0  0  0
  4  2  1  0  0  0  0
  4 13  1  1  0  0  0
  5  6  1  0  0  0  0
  5 14  1  0  0  0  0
  5 15  1  0  0  0  0
  6  7  1  0  0  0  0
  6 16  1  0  0  0  0
  6 17  1  0  0  0  0
  7  9  1  0  0  0  0
  7  8  1  0  0  0  0
  7 18  1  6  0  0  0
  8 19  1  0  0  0  0
  9 10  2  0  0  0  0
  9 11  1  0  0  0  0
 11 20  1  0  0  0  0
 11 21  1  0  0  0  0
M  END
$$$$
