CHEBI:16984
 OpenBabel04242415393D

 14 14  0  0  0  0  0  0  0  0999 V2000
    3.2658    0.7050   -1.0082 C   0  0  0  0  0  0  0  0  0  0  0  0
    2.4896    0.0240    0.0772 C   0  0  0  0  0  0  0  0  0  0  0  0
    1.3031   -0.2711    0.0110 O   0  0  0  0  0  0  0  0  0  0  0  0
    3.2134   -0.2810    1.2365 N   0  0  0  0  0  0  0  0  0  0  0  0
    2.7145   -0.9071    2.3629 C   0  0  0  0  0  0  0  0  0  0  0  0
    3.7624   -1.0032    3.2442 C   0  0  0  0  0  0  0  0  0  0  0  0
    4.8947   -0.4587    2.7060 N   0  0  0  0  0  0  0  0  0  0  0  0
    4.5409   -0.0368    1.5123 C   0  0  0  0  0  0  0  0  0  0  0  0
    2.5995    0.8929   -1.8559 H   0  0  0  0  0  0  0  0  0  0  0  0
    4.0820    0.0657   -1.3554 H   0  0  0  0  0  0  0  0  0  0  0  0
    3.6490    1.6680   -0.6603 H   0  0  0  0  0  0  0  0  0  0  0  0
    1.6799   -1.2170    2.4232 H   0  0  0  0  0  0  0  0  0  0  0  0
    3.7595   -1.4358    4.2369 H   0  0  0  0  0  0  0  0  0  0  0  0
    5.2093    0.4501    0.8148 H   0  0  0  0  0  0  0  0  0  0  0  0
  1  2  1  0  0  0  0
  1  9  1  0  0  0  0
  1 10  1  0  0  0  0
  1 11  1  0  0  0  0
  2  3  2  0  0  0  0
  2  4  1  0  0  0  0
  4  5  1  0  0  0  0
  4  8  1  0  0  0  0
  5  6  2  0  0  0  0
  5 12  1  0  0  0  0
  6  7  1  0  0  0  0
  6 13  1  0  0  0  0
  7  8  2  0  0  0  0
  8 14  1  0  0  0  0
M  END
$$$$
