CHEBI:17405
 OpenBabel04242416303D

 22 22  0  0  0  0  0  0  0  0999 V2000
   -1.4858   -1.4789    0.1638 C   0  0  0  0  0  0  0  0  0  0  0  0
   -0.2938   -0.5782    0.0268 C   0  0  0  0  0  0  0  0  0  0  0  0
    0.8523   -1.1862   -0.3461 N   0  0  0  0  0  0  0  0  0  0  0  0
    1.9603   -0.4248   -0.4729 C   0  0  0  0  0  0  0  0  0  0  0  0
    2.0102    0.9435   -0.2319 C   0  0  0  0  0  0  0  0  0  0  0  0
    3.3297    1.6447   -0.3806 C   0  0  0  0  0  0  0  0  0  0  0  0
    3.3224    2.4392   -1.5543 O   0  0  0  0  0  0  0  0  0  0  0  0
    0.8065    1.5753    0.1395 C   0  0  0  0  0  0  0  0  0  0  0  0
    0.7881    3.0604    0.3592 C   0  0  0  0  0  0  0  0  0  0  0  0
    1.6705    3.8068   -0.0369 O   0  0  0  0  0  0  0  0  0  0  0  0
   -0.2605    3.5301    1.0661 O   0  0  0  0  0  0  0  0  0  0  0  0
   -0.3593    0.7963    0.2695 C   0  0  0  0  0  0  0  0  0  0  0  0
   -1.5337    1.4024    0.6475 O   0  0  0  0  0  0  0  0  0  0  0  0
   -1.2074   -2.5245   -0.0051 H   0  0  0  0  0  0  0  0  0  0  0  0
   -2.2501   -1.2114   -0.5723 H   0  0  0  0  0  0  0  0  0  0  0  0
   -1.9067   -1.4041    1.1713 H   0  0  0  0  0  0  0  0  0  0  0  0
    2.8457   -0.9758   -0.7854 H   0  0  0  0  0  0  0  0  0  0  0  0
    4.1476    0.9225   -0.4798 H   0  0  0  0  0  0  0  0  0  0  0  0
    3.5676    2.2553    0.4977 H   0  0  0  0  0  0  0  0  0  0  0  0
    2.8655    3.2700   -1.2955 H   0  0  0  0  0  0  0  0  0  0  0  0
   -0.9508    2.8475    1.2172 H   0  0  0  0  0  0  0  0  0  0  0  0
   -2.2819    0.7993    0.4785 H   0  0  0  0  0  0  0  0  0  0  0  0
  1  2  1  0  0  0  0
  1 14  1  0  0  0  0
  1 15  1  0  0  0  0
  1 16  1  0  0  0  0
  2  3  1  0  0  0  0
  2 12  2  0  0  0  0
  3  4  2  0  0  0  0
  4  5  1  0  0  0  0
  4 17  1  0  0  0  0
  5  6  1  0  0  0  0
  5  8  2  0  0  0  0
  6  7  1  0  0  0  0
  6 18  1  0  0  0  0
  6 19  1  0  0  0  0
  7 20  1  0  0  0  0
  8  9  1  0  0  0  0
  8 12  1  0  0  0  0
  9 10  2  0  0  0  0
  9 11  1  0  0  0  0
 11 21  1  0  0  0  0
 12 13  1  0  0  0  0
 13 22  1  0  0  0  0
M  END
$$$$
