CHEBI:9915
 OpenBabel04242411413D

 50 52  0  0  0  0  0  0  0  0999 V2000
    4.4280    1.4506    0.4225 C   0  0  0  0  0  0  0  0  0  0  0  0
    3.8518    0.2335    0.8937 O   0  0  0  0  0  0  0  0  0  0  0  0
    4.5967   -0.8880    0.6434 C   0  0  0  0  0  0  0  0  0  0  0  0
    5.9727   -0.9075    0.9019 C   0  0  0  0  0  0  0  0  0  0  0  0
    6.7328   -2.0310    0.5808 C   0  0  0  0  0  0  0  0  0  0  0  0
    8.0656   -2.0525    0.8812 O   0  0  0  0  0  0  0  0  0  0  0  0
    6.1607   -3.1405   -0.0475 C   0  0  0  0  0  0  0  0  0  0  0  0
    7.0188   -4.3083   -0.5001 C   0  0  0  0  0  0  0  0  0  0  0  0
    8.0289   -3.9612   -1.5773 C   0  0  0  0  0  0  0  0  0  0  0  0
    9.3995   -4.0755   -1.2778 C   0  0  0  0  0  0  0  0  0  0  0  0
   10.3756   -3.7265   -2.2134 C   0  0  0  0  0  0  0  0  0  0  0  0
    9.9975   -3.2563   -3.4671 C   0  0  0  0  0  0  0  0  0  0  0  0
    8.6449   -3.1526   -3.7880 C   0  0  0  0  0  0  0  0  0  0  0  0
    7.6708   -3.5138   -2.8558 C   0  0  0  0  0  0  0  0  0  0  0  0
    6.3743   -3.4005   -3.2738 O   0  0  0  0  0  0  0  0  0  0  0  0
    4.7699   -3.1277   -0.2538 C   0  0  0  0  0  0  0  0  0  0  0  0
    4.2430   -4.2143   -0.9168 O   0  0  0  0  0  0  0  0  0  0  0  0
    3.9629   -2.0386    0.1546 C   0  0  0  0  0  0  0  0  0  0  0  0
    2.4784   -2.1592    0.0069 C   0  0  0  0  0  0  0  0  0  0  0  0
    2.0586   -2.9642   -0.8339 O   0  0  0  0  0  0  0  0  0  0  0  0
    1.4872   -1.3430    0.8221 C   0  0  0  0  0  0  0  0  0  0  0  0
    1.6748   -1.2844    2.3376 C   0  0  0  0  0  0  0  0  0  0  0  0
    1.8505   -2.6094    3.0327 C   0  0  0  0  0  0  0  0  0  0  0  0
    3.0537   -2.9011    3.6918 C   0  0  0  0  0  0  0  0  0  0  0  0
    3.2071   -4.0972    4.3929 C   0  0  0  0  0  0  0  0  0  0  0  0
    2.1596   -5.0135    4.4431 C   0  0  0  0  0  0  0  0  0  0  0  0
    0.9617   -4.7371    3.7863 C   0  0  0  0  0  0  0  0  0  0  0  0
    0.8068   -3.5412    3.0827 C   0  0  0  0  0  0  0  0  0  0  0  0
    5.2436    1.7794    1.0733 H   0  0  0  0  0  0  0  0  0  0  0  0
    3.6496    2.2189    0.4571 H   0  0  0  0  0  0  0  0  0  0  0  0
    4.7665    1.3572   -0.6150 H   0  0  0  0  0  0  0  0  0  0  0  0
    6.4520   -0.0567    1.3738 H   0  0  0  0  0  0  0  0  0  0  0  0
    8.3686   -1.1531    1.0848 H   0  0  0  0  0  0  0  0  0  0  0  0
    6.4142   -5.1443   -0.8718 H   0  0  0  0  0  0  0  0  0  0  0  0
    7.5249   -4.7135    0.3864 H   0  0  0  0  0  0  0  0  0  0  0  0
    9.7148   -4.4229   -0.2958 H   0  0  0  0  0  0  0  0  0  0  0  0
   11.4281   -3.8154   -1.9579 H   0  0  0  0  0  0  0  0  0  0  0  0
   10.7529   -2.9744   -4.1952 H   0  0  0  0  0  0  0  0  0  0  0  0
    8.3459   -2.7923   -4.7684 H   0  0  0  0  0  0  0  0  0  0  0  0
    5.7835   -3.7895   -2.6043 H   0  0  0  0  0  0  0  0  0  0  0  0
    3.2780   -4.0574   -1.0490 H   0  0  0  0  0  0  0  0  0  0  0  0
    0.5003   -1.7855    0.6261 H   0  0  0  0  0  0  0  0  0  0  0  0
    1.4400   -0.3329    0.4002 H   0  0  0  0  0  0  0  0  0  0  0  0
    0.7923   -0.7955    2.7732 H   0  0  0  0  0  0  0  0  0  0  0  0
    2.5050   -0.6273    2.6085 H   0  0  0  0  0  0  0  0  0  0  0  0
    3.8779   -2.1912    3.6774 H   0  0  0  0  0  0  0  0  0  0  0  0
    4.1408   -4.3091    4.9070 H   0  0  0  0  0  0  0  0  0  0  0  0
    2.2753   -5.9411    4.9971 H   0  0  0  0  0  0  0  0  0  0  0  0
    0.1432   -5.4510    3.8292 H   0  0  0  0  0  0  0  0  0  0  0  0
   -0.1405   -3.3365    2.5892 H   0  0  0  0  0  0  0  0  0  0  0  0
  1  2  1  0  0  0  0
  1 29  1  0  0  0  0
  1 30  1  0  0  0  0
  1 31  1  0  0  0  0
  2  3  1  0  0  0  0
  3  4  1  0  0  0  0
  3 18  2  0  0  0  0
  4  5  2  0  0  0  0
  4 32  1  0  0  0  0
  5  6  1  0  0  0  0
  5  7  1  0  0  0  0
  6 33  1  0  0  0  0
  7  8  1  0  0  0  0
  7 16  2  0  0  0  0
  8  9  1  0  0  0  0
  8 34  1  0  0  0  0
  8 35  1  0  0  0  0
  9 10  1  0  0  0  0
  9 14  2  0  0  0  0
 10 11  2  0  0  0  0
 10 36  1  0  0  0  0
 11 12  1  0  0  0  0
 11 37  1  0  0  0  0
 12 13  2  0  0  0  0
 12 38  1  0  0  0  0
 13 14  1  0  0  0  0
 13 39  1  0  0  0  0
 14 15  1  0  0  0  0
 15 40  1  0  0  0  0
 16 17  1  0  0  0  0
 16 18  1  0  0  0  0
 17 41  1  0  0  0  0
 18 19  1  0  0  0  0
 19 20  2  0  0  0  0
 19 21  1  0  0  0  0
 21 22  1  0  0  0  0
 21 42  1  0  0  0  0
 21 43  1  0  0  0  0
 22 23  1  0  0  0  0
 22 44  1  0  0  0  0
 22 45  1  0  0  0  0
 23 24  1  0  0  0  0
 23 28  2  0  0  0  0
 24 25  2  0  0  0  0
 24 46  1  0  0  0  0
 25 26  1  0  0  0  0
 25 47  1  0  0  0  0
 26 27  2  0  0  0  0
 26 48  1  0  0  0  0
 27 28  1  0  0  0  0
 27 49  1  0  0  0  0
 28 50  1  0  0  0  0
M  END
$$$$
