CHEBI:17925
 OpenBabel04242423163D

 24 24  0  0  1  0  0  0  0  0999 V2000
    3.5287   -0.6562    0.8539 O   0  0  0  0  0  0  0  0  0  0  0  0
    2.4614   -0.2371    0.0144 C   0  0  0  0  0  0  0  0  0  0  0  0
    2.8863    0.9159   -0.9091 C   0  0  1  0  0  0  0  0  0  0  0  0
    1.9857    0.9217   -2.0303 O   0  0  0  0  0  0  0  0  0  0  0  0
    2.2630    1.9188   -3.0008 C   0  0  2  0  0  0  0  0  0  0  0  0
    3.4486    1.6309   -3.7329 O   0  0  0  0  0  0  0  0  0  0  0  0
    2.2877    3.3375   -2.4083 C   0  0  2  0  0  0  0  0  0  0  0  0
    2.7369    4.3162   -3.3588 O   0  0  0  0  0  0  0  0  0  0  0  0
    3.1998    3.3957   -1.1862 C   0  0  1  0  0  0  0  0  0  0  0  0
    3.0631    4.6679   -0.5297 O   0  0  0  0  0  0  0  0  0  0  0  0
    2.8615    2.2810   -0.1917 C   0  0  2  0  0  0  0  0  0  0  0  0
    3.7939    2.3520    0.8862 O   0  0  0  0  0  0  0  0  0  0  0  0
    3.1602   -1.2867    1.4954 H   0  0  0  0  0  0  0  0  0  0  0  0
    1.6078    0.0555    0.6360 H   0  0  0  0  0  0  0  0  0  0  0  0
    2.1485   -1.1019   -0.5813 H   0  0  0  0  0  0  0  0  0  0  0  0
    3.9041    0.7032   -1.2608 H   0  0  0  0  0  0  0  0  0  0  0  0
    1.4556    1.8758   -3.7392 H   0  0  0  0  0  0  0  0  0  0  0  0
    4.2164    1.7921   -3.1622 H   0  0  0  0  0  0  0  0  0  0  0  0
    1.2745    3.6259   -2.1034 H   0  0  0  0  0  0  0  0  0  0  0  0
    3.0766    3.8297   -4.1368 H   0  0  0  0  0  0  0  0  0  0  0  0
    4.2542    3.3348   -1.4827 H   0  0  0  0  0  0  0  0  0  0  0  0
    3.0975    5.3350   -1.2455 H   0  0  0  0  0  0  0  0  0  0  0  0
    1.8655    2.4669    0.2296 H   0  0  0  0  0  0  0  0  0  0  0  0
    3.8101    3.2914    1.1582 H   0  0  0  0  0  0  0  0  0  0  0  0
  1  2  1  0  0  0  0
  1 13  1  0  0  0  0
  2  3  1  0  0  0  0
  2 14  1  0  0  0  0
  2 15  1  0  0  0  0
  3  4  1  0  0  0  0
  3 11  1  0  0  0  0
  3 16  1  6  0  0  0
  4  5  1  0  0  0  0
  5  6  1  0  0  0  0
  5  7  1  0  0  0  0
  5 17  1  6  0  0  0
  6 18  1  0  0  0  0
  7  8  1  0  0  0  0
  7  9  1  0  0  0  0
  7 19  1  1  0  0  0
  8 20  1  0  0  0  0
  9 10  1  0  0  0  0
  9 11  1  0  0  0  0
  9 21  1  6  0  0  0
 10 22  1  0  0  0  0
 11 12  1  0  0  0  0
 11 23  1  1  0  0  0
 12 24  1  0  0  0  0
M  END
$$$$
