CHEBI:3319
 OpenBabel04242410493D

158164  0  0  1  0  0  0  0  0999 V2000
  -16.0305   -0.5057   12.8022 C   0  0  0  0  0  0  0  0  0  0  0  0
  -15.1665   -0.8871   13.9934 C   0  0  0  0  0  0  0  0  0  0  0  0
  -15.9385   -0.9974   15.2182 N   0  0  0  0  0  0  0  0  0  0  0  0
  -16.7563   -2.2206   15.3915 C   0  0  1  0  0  0  0  0  0  0  0  0
  -15.9752   -3.3850   16.0157 C   0  0  0  0  0  0  0  0  0  0  0  0
  -16.7285   -4.5439   16.3806 O   0  0  0  0  0  0  0  0  0  0  0  0
  -18.1453   -4.4460   16.4739 C   0  0  1  0  0  0  0  0  0  0  0  0
  -18.8295   -4.8526   15.2700 O   0  0  0  0  0  0  0  0  0  0  0  0
  -18.7133   -6.2946   15.0482 C   0  0  1  0  0  0  0  0  0  0  0  0
  -19.9194   -6.9413   14.2800 C   0  0  2  0  0  0  0  0  0  0  0  0
  -21.1471   -6.8060   15.0489 O   0  0  0  0  0  0  0  0  0  0  0  0
  -22.2765   -7.6374   14.6764 C   0  0  1  0  0  0  0  0  0  0  0  0
  -23.5265   -6.9847   15.2020 C   0  0  0  0  0  0  0  0  0  0  0  0
  -24.5765   -6.7956   15.7658 C   0  0  0  0  0  0  0  0  0  0  0  0
  -25.8000   -6.8022   16.5169 C   0  0  0  0  0  0  0  0  0  0  0  0
  -26.3345   -7.8999   17.0872 C   0  0  0  0  0  0  0  0  0  0  0  0
  -25.7484   -9.1941   16.9685 C   0  0  0  0  0  0  0  0  0  0  0  0
  -25.1008  -10.1462   16.6493 C   0  0  0  0  0  0  0  0  0  0  0  0
  -24.1145  -10.9736   15.9196 C   0  0  2  0  0  0  0  0  0  0  0  0
  -24.8021  -12.0769   15.3128 O   0  0  0  0  0  0  0  0  0  0  0  0
  -23.0807  -11.5967   16.8242 C   0  0  0  0  0  0  0  0  0  0  0  0
  -22.1633  -10.5608   17.3588 C   0  0  0  0  0  0  0  0  0  0  0  0
  -21.6250  -10.6942   18.4611 O   0  0  0  0  0  0  0  0  0  0  0  0
  -21.8062   -9.3815   16.5017 C   0  0  0  0  0  0  0  0  0  0  0  0
  -20.7261   -8.6883   17.0143 N   0  0  0  0  0  0  0  0  0  0  0  0
  -19.4649   -9.1619   16.7076 C   0  0  0  0  0  0  0  0  0  0  0  0
  -18.4704   -8.8528   17.3490 O   0  0  0  0  0  0  0  0  0  0  0  0
  -19.4797   -9.9469   15.5975 O   0  0  0  0  0  0  0  0  0  0  0  0
  -18.2293  -10.4087   15.0985 C   0  0  0  0  0  0  0  0  0  0  0  0
  -22.4286   -9.0716   15.3337 C   0  0  0  0  0  0  0  0  0  0  0  0
  -23.5450   -9.9877   14.8475 C   0  0  0  0  0  0  0  0  0  0  0  0
  -24.2414   -9.9449   13.6800 C   0  0  0  0  0  0  0  0  0  0  0  0
  -24.2409   -9.1014   12.4465 C   0  0  0  0  0  0  0  0  0  0  0  0
  -22.8056   -9.4288   11.3812 S   0  0  0  0  0  0  0  0  0  0  0  0
  -23.0393  -11.4180   10.9309 S   0  0  0  0  0  0  0  0  0  0  0  0
  -22.1847  -12.4297   12.5035 S   0  0  0  0  0  0  0  0  0  0  0  0
  -21.1074  -13.6070   11.6625 C   0  0  0  0  0  0  0  0  0  0  0  0
  -19.9391   -6.3674   12.9707 O   0  0  0  0  0  0  0  0  0  0  0  0
  -18.8421   -6.8620   12.1643 C   0  0  1  0  0  0  0  0  0  0  0  0
  -18.9179   -6.2157   10.7866 C   0  0  0  0  0  0  0  0  0  0  0  0
  -17.4070   -6.8064   12.7950 C   0  0  1  0  0  0  0  0  0  0  0  0
  -16.3138   -6.0510   12.0550 N   0  0  0  0  0  0  0  0  0  0  0  0
  -16.5855   -4.6205   12.2195 O   0  0  0  0  0  0  0  0  0  0  0  0
  -15.7911   -3.7386   11.3696 C   0  0  1  0  0  0  0  0  0  0  0  0
  -14.2777   -3.8151   11.5759 C   0  0  0  0  0  0  0  0  0  0  0  0
  -13.4549   -2.8503   10.6769 C   0  0  2  0  0  0  0  0  0  0  0  0
  -13.0778   -1.7529   11.5029 O   0  0  0  0  0  0  0  0  0  0  0  0
  -14.1036   -2.4616    9.3148 C   0  0  2  0  0  0  0  0  0  0  0  0
  -13.3159   -1.1508    8.2440 S   0  0  0  0  0  0  0  0  0  0  0  0
  -13.1964    0.4342    9.0231 C   0  0  0  0  0  0  0  0  0  0  0  0
  -13.3793    0.5182   10.2311 O   0  0  0  0  0  0  0  0  0  0  0  0
  -12.8599    1.6870    8.1653 C   0  0  0  0  0  0  0  0  0  0  0  0
  -13.0575    2.9568    8.7766 C   0  0  0  0  0  0  0  0  0  0  0  0
  -12.0868    3.3747    9.8605 C   0  0  0  0  0  0  0  0  0  0  0  0
  -13.8710    3.9251    8.1223 C   0  0  0  0  0  0  0  0  0  0  0  0
  -14.1741    5.8610    8.9490 I   0  0  0  0  0  0  0  0  0  0  0  0
  -14.3791    3.6553    6.8511 C   0  0  0  0  0  0  0  0  0  0  0  0
  -15.2455    4.4702    6.1839 O   0  0  0  0  0  0  0  0  0  0  0  0
  -16.6583    4.2319    6.3740 C   0  0  2  0  0  0  0  0  0  0  0  0
  -17.1218    4.6971    7.6340 O   0  0  0  0  0  0  0  0  0  0  0  0
  -17.5602    3.7642    8.6100 C   0  0  1  0  0  0  0  0  0  0  0  0
  -19.0618    3.9466    8.8288 C   0  0  0  0  0  0  0  0  0  0  0  0
  -17.1936    2.2729    8.4375 C   0  0  2  0  0  0  0  0  0  0  0  0
  -15.9780    1.9884    9.1603 O   0  0  0  0  0  0  0  0  0  0  0  0
  -16.9700    1.7823    6.9941 C   0  0  1  0  0  0  0  0  0  0  0  0
  -17.8254    0.6353    6.7606 O   0  0  0  0  0  0  0  0  0  0  0  0
  -17.5377   -0.0639    5.5500 C   0  0  0  0  0  0  0  0  0  0  0  0
  -17.2238    2.8638    5.9452 C   0  0  1  0  0  0  0  0  0  0  0  0
  -18.6493    2.9687    5.7291 O   0  0  0  0  0  0  0  0  0  0  0  0
  -13.7220    2.6618    6.1241 C   0  0  0  0  0  0  0  0  0  0  0  0
  -13.8379    2.5906    4.7530 O   0  0  0  0  0  0  0  0  0  0  0  0
  -13.3797    3.7763    4.0905 C   0  0  0  0  0  0  0  0  0  0  0  0
  -12.9273    1.6875    6.7690 C   0  0  0  0  0  0  0  0  0  0  0  0
  -11.9422    1.2111    5.9256 O   0  0  0  0  0  0  0  0  0  0  0  0
  -11.1596    0.0880    6.2721 C   0  0  0  0  0  0  0  0  0  0  0  0
  -15.6505   -2.5025    9.3530 C   0  0  1  0  0  0  0  0  0  0  0  0
  -16.3020   -2.4831    7.9726 C   0  0  0  0  0  0  0  0  0  0  0  0
  -16.1066   -3.7332    9.9778 O   0  0  0  0  0  0  0  0  0  0  0  0
  -17.3708   -6.5651   14.3304 C   0  0  2  0  0  0  0  0  0  0  0  0
  -16.7108   -7.6860   14.9595 O   0  0  0  0  0  0  0  0  0  0  0  0
  -18.6239   -3.0918   16.9704 C   0  0  0  0  0  0  0  0  0  0  0  0
  -17.9980   -1.8948   16.2613 C   0  0  2  0  0  0  0  0  0  0  0  0
  -17.8233   -0.7799   17.1691 O   0  0  0  0  0  0  0  0  0  0  0  0
  -16.8034   -0.9022   18.1568 C   0  0  0  0  0  0  0  0  0  0  0  0
  -16.8875   -1.1742   12.6867 H   0  0  0  0  0  0  0  0  0  0  0  0
  -15.4366   -0.5433   11.8853 H   0  0  0  0  0  0  0  0  0  0  0  0
  -16.4259    0.5085   12.8973 H   0  0  0  0  0  0  0  0  0  0  0  0
  -14.4247   -0.0906   14.1304 H   0  0  0  0  0  0  0  0  0  0  0  0
  -14.5966   -1.8010   13.8143 H   0  0  0  0  0  0  0  0  0  0  0  0
  -16.5442   -0.1795   15.3272 H   0  0  0  0  0  0  0  0  0  0  0  0
  -17.1408   -2.5725   14.4256 H   0  0  0  0  0  0  0  0  0  0  0  0
  -15.4440   -3.0648   16.9176 H   0  0  0  0  0  0  0  0  0  0  0  0
  -15.1960   -3.7201   15.3197 H   0  0  0  0  0  0  0  0  0  0  0  0
  -18.4372   -5.1547   17.2586 H   0  0  0  0  0  0  0  0  0  0  0  0
  -18.7180   -6.7575   16.0361 H   0  0  0  0  0  0  0  0  0  0  0  0
  -19.7461   -8.0140   14.1694 H   0  0  0  0  0  0  0  0  0  0  0  0
  -22.2947   -7.6944   13.5901 H   0  0  0  0  0  0  0  0  0  0  0  0
  -26.3136   -5.8535   16.6364 H   0  0  0  0  0  0  0  0  0  0  0  0
  -27.2623   -7.8266   17.6465 H   0  0  0  0  0  0  0  0  0  0  0  0
  -24.1660  -12.5118   14.7166 H   0  0  0  0  0  0  0  0  0  0  0  0
  -22.4772  -12.3489   16.3008 H   0  0  0  0  0  0  0  0  0  0  0  0
  -23.5654  -12.1101   17.6656 H   0  0  0  0  0  0  0  0  0  0  0  0
  -20.7419   -8.5808   18.0273 H   0  0  0  0  0  0  0  0  0  0  0  0
  -18.4011  -11.3804   14.6294 H   0  0  0  0  0  0  0  0  0  0  0  0
  -17.4749  -10.5162   15.8800 H   0  0  0  0  0  0  0  0  0  0  0  0
  -17.8969   -9.7223   14.3187 H   0  0  0  0  0  0  0  0  0  0  0  0
  -25.0770  -10.6491   13.5973 H   0  0  0  0  0  0  0  0  0  0  0  0
  -24.3299   -8.0409   12.6927 H   0  0  0  0  0  0  0  0  0  0  0  0
  -25.1515   -9.3274   11.8720 H   0  0  0  0  0  0  0  0  0  0  0  0
  -20.1313  -13.1729   11.4353 H   0  0  0  0  0  0  0  0  0  0  0  0
  -21.5792  -13.9769   10.7487 H   0  0  0  0  0  0  0  0  0  0  0  0
  -20.9641  -14.4586   12.3332 H   0  0  0  0  0  0  0  0  0  0  0  0
  -19.0592   -7.9284   11.9980 H   0  0  0  0  0  0  0  0  0  0  0  0
  -18.8931   -5.1248   10.8628 H   0  0  0  0  0  0  0  0  0  0  0  0
  -19.8610   -6.4798   10.2983 H   0  0  0  0  0  0  0  0  0  0  0  0
  -18.1018   -6.5523   10.1378 H   0  0  0  0  0  0  0  0  0  0  0  0
  -17.0415   -7.8366   12.6577 H   0  0  0  0  0  0  0  0  0  0  0  0
  -15.4717   -6.1631   12.6294 H   0  0  0  0  0  0  0  0  0  0  0  0
  -16.1173   -2.7746   11.7349 H   0  0  0  0  0  0  0  0  0  0  0  0
  -13.9397   -4.8390   11.3857 H   0  0  0  0  0  0  0  0  0  0  0  0
  -14.0642   -3.6287   12.6362 H   0  0  0  0  0  0  0  0  0  0  0  0
  -12.5142   -3.3693   10.4461 H   0  0  0  0  0  0  0  0  0  0  0  0
  -13.1887   -0.9075   11.0228 H   0  0  0  0  0  0  0  0  0  0  0  0
  -13.8682   -3.3464    8.7021 H   0  0  0  0  0  0  0  0  0  0  0  0
  -11.2636    3.9235    9.3786 H   0  0  0  0  0  0  0  0  0  0  0  0
  -11.6452    2.5212   10.3786 H   0  0  0  0  0  0  0  0  0  0  0  0
  -12.5358    4.0229   10.6159 H   0  0  0  0  0  0  0  0  0  0  0  0
  -17.1038    4.9436    5.6666 H   0  0  0  0  0  0  0  0  0  0  0  0
  -17.0964    4.1261    9.5351 H   0  0  0  0  0  0  0  0  0  0  0  0
  -19.6516    3.4503    8.0544 H   0  0  0  0  0  0  0  0  0  0  0  0
  -19.3363    5.0068    8.8220 H   0  0  0  0  0  0  0  0  0  0  0  0
  -19.3538    3.5229    9.7965 H   0  0  0  0  0  0  0  0  0  0  0  0
  -17.9492    1.6546    8.9349 H   0  0  0  0  0  0  0  0  0  0  0  0
  -16.0327    2.4047   10.0396 H   0  0  0  0  0  0  0  0  0  0  0  0
  -15.9448    1.4122    6.9104 H   0  0  0  0  0  0  0  0  0  0  0  0
  -17.5404   -1.1360    5.7579 H   0  0  0  0  0  0  0  0  0  0  0  0
  -16.5700    0.2073    5.1171 H   0  0  0  0  0  0  0  0  0  0  0  0
  -18.3357    0.1380    4.8310 H   0  0  0  0  0  0  0  0  0  0  0  0
  -16.7920    2.5635    4.9841 H   0  0  0  0  0  0  0  0  0  0  0  0
  -19.0264    2.0889    5.9313 H   0  0  0  0  0  0  0  0  0  0  0  0
  -13.2001    4.6365    4.7462 H   0  0  0  0  0  0  0  0  0  0  0  0
  -14.1328    4.0567    3.3481 H   0  0  0  0  0  0  0  0  0  0  0  0
  -12.4444    3.5541    3.5677 H   0  0  0  0  0  0  0  0  0  0  0  0
  -10.8543    0.0616    7.3210 H   0  0  0  0  0  0  0  0  0  0  0  0
  -10.2464    0.1077    5.6693 H   0  0  0  0  0  0  0  0  0  0  0  0
  -11.7123   -0.8056    5.9755 H   0  0  0  0  0  0  0  0  0  0  0  0
  -16.0356   -1.6449    9.9146 H   0  0  0  0  0  0  0  0  0  0  0  0
  -15.9090   -1.6907    7.3342 H   0  0  0  0  0  0  0  0  0  0  0  0
  -16.1858   -3.4437    7.4582 H   0  0  0  0  0  0  0  0  0  0  0  0
  -17.3802   -2.3178    8.0798 H   0  0  0  0  0  0  0  0  0  0  0  0
  -16.6877   -5.7345   14.4954 H   0  0  0  0  0  0  0  0  0  0  0  0
  -16.6373   -7.4795   15.9138 H   0  0  0  0  0  0  0  0  0  0  0  0
  -18.4164   -3.0373   18.0433 H   0  0  0  0  0  0  0  0  0  0  0  0
  -19.7148   -3.0260   16.8784 H   0  0  0  0  0  0  0  0  0  0  0  0
  -18.7509   -1.5175   15.5557 H   0  0  0  0  0  0  0  0  0  0  0  0
  -16.7903    0.0235   18.7390 H   0  0  0  0  0  0  0  0  0  0  0  0
  -15.8086   -1.0155   17.7218 H   0  0  0  0  0  0  0  0  0  0  0  0
  -16.9990   -1.7279   18.8436 H   0  0  0  0  0  0  0  0  0  0  0  0
  1  2  1  0  0  0  0
  1 85  1  0  0  0  0
  1 86  1  0  0  0  0
  1 87  1  0  0  0  0
  2  3  1  0  0  0  0
  2 88  1  0  0  0  0
  2 89  1  0  0  0  0
  3  4  1  0  0  0  0
  3 90  1  0  0  0  0
  4  5  1  0  0  0  0
  4 82  1  0  0  0  0
  4 91  1  6  0  0  0
  5  6  1  0  0  0  0
  5 92  1  0  0  0  0
  5 93  1  0  0  0  0
  6  7  1  0  0  0  0
  7 81  1  0  0  0  0
  7  8  1  0  0  0  0
  7 94  1  6  0  0  0
  8  9  1  0  0  0  0
  9 10  1  0  0  0  0
  9 79  1  0  0  0  0
  9 95  1  1  0  0  0
 10 38  1  0  0  0  0
 10 11  1  0  0  0  0
 10 96  1  1  0  0  0
 12 13  1  0  0  0  0
 12 30  1  0  0  0  0
 12 11  1  0  0  0  0
 12 97  1  1  0  0  0
 13 14  3  0  0  0  0
 14 15  1  0  0  0  0
 15 16  2  0  0  0  0
 15 98  1  0  0  0  0
 16 17  1  0  0  0  0
 16 99  1  0  0  0  0
 17 18  3  0  0  0  0
 18 19  1  0  0  0  0
 19 21  1  0  0  0  0
 19 31  1  0  0  0  0
 19 20  1  6  0  0  0
 20100  1  0  0  0  0
 21 22  1  0  0  0  0
 21101  1  0  0  0  0
 21102  1  0  0  0  0
 22 24  1  0  0  0  0
 22 23  2  0  0  0  0
 24 30  2  0  0  0  0
 24 25  1  0  0  0  0
 25 26  1  0  0  0  0
 25103  1  0  0  0  0
 26 27  2  0  0  0  0
 26 28  1  0  0  0  0
 28 29  1  0  0  0  0
 29104  1  0  0  0  0
 29105  1  0  0  0  0
 29106  1  0  0  0  0
 30 31  1  0  0  0  0
 31 32  2  0  0  0  0
 32 33  1  0  0  0  0
 32107  1  0  0  0  0
 33 34  1  0  0  0  0
 33108  1  0  0  0  0
 33109  1  0  0  0  0
 34 35  1  0  0  0  0
 35 36  1  0  0  0  0
 36 37  1  0  0  0  0
 37110  1  0  0  0  0
 37111  1  0  0  0  0
 37112  1  0  0  0  0
 38 39  1  0  0  0  0
 39 41  1  0  0  0  0
 39 40  1  0  0  0  0
 39113  1  6  0  0  0
 40114  1  0  0  0  0
 40115  1  0  0  0  0
 40116  1  0  0  0  0
 41 79  1  0  0  0  0
 41 42  1  0  0  0  0
 41117  1  6  0  0  0
 42 43  1  0  0  0  0
 42118  1  0  0  0  0
 44 45  1  0  0  0  0
 44 78  1  0  0  0  0
 44 43  1  0  0  0  0
 44119  1  1  0  0  0
 45 46  1  0  0  0  0
 45120  1  0  0  0  0
 45121  1  0  0  0  0
 46 48  1  0  0  0  0
 46 47  1  0  0  0  0
 46122  1  6  0  0  0
 47123  1  0  0  0  0
 48 76  1  0  0  0  0
 48 49  1  0  0  0  0
 48124  1  6  0  0  0
 49 50  1  0  0  0  0
 50 51  2  0  0  0  0
 50 52  1  0  0  0  0
 52 53  1  0  0  0  0
 52 73  2  0  0  0  0
 53 54  1  0  0  0  0
 53 55  2  0  0  0  0
 54125  1  0  0  0  0
 54126  1  0  0  0  0
 54127  1  0  0  0  0
 55 56  1  0  0  0  0
 55 57  1  0  0  0  0
 57 58  1  0  0  0  0
 57 70  2  0  0  0  0
 59 60  1  0  0  0  0
 59 68  1  0  0  0  0
 59 58  1  0  0  0  0
 59128  1  6  0  0  0
 60 61  1  0  0  0  0
 61 63  1  0  0  0  0
 61 62  1  0  0  0  0
 61129  1  1  0  0  0
 62130  1  0  0  0  0
 62131  1  0  0  0  0
 62132  1  0  0  0  0
 63 64  1  0  0  0  0
 63 65  1  0  0  0  0
 63133  1  1  0  0  0
 64134  1  0  0  0  0
 65 66  1  0  0  0  0
 65 68  1  0  0  0  0
 65135  1  6  0  0  0
 66 67  1  0  0  0  0
 67136  1  0  0  0  0
 67137  1  0  0  0  0
 67138  1  0  0  0  0
 68 69  1  0  0  0  0
 68139  1  6  0  0  0
 69140  1  0  0  0  0
 70 71  1  0  0  0  0
 70 73  1  0  0  0  0
 71 72  1  0  0  0  0
 72141  1  0  0  0  0
 72142  1  0  0  0  0
 72143  1  0  0  0  0
 73 74  1  0  0  0  0
 74 75  1  0  0  0  0
 75144  1  0  0  0  0
 75145  1  0  0  0  0
 75146  1  0  0  0  0
 76 77  1  0  0  0  0
 76 78  1  0  0  0  0
 76147  1  1  0  0  0
 77148  1  0  0  0  0
 77149  1  0  0  0  0
 77150  1  0  0  0  0
 79 80  1  0  0  0  0
 79151  1  1  0  0  0
 80152  1  0  0  0  0
 81 82  1  0  0  0  0
 81153  1  0  0  0  0
 81154  1  0  0  0  0
 82 83  1  0  0  0  0
 82155  1  1  0  0  0
 83 84  1  0  0  0  0
 84156  1  0  0  0  0
 84157  1  0  0  0  0
 84158  1  0  0  0  0
M  END
$$$$
