CHEBI:17287
 OpenBabel04242416123D

 23 22  0  0  0  0  0  0  0  0999 V2000
    1.2199   -0.9304    0.2344 C   0  0  0  0  0  0  0  0  0  0  0  0
    2.4750   -0.1763    0.1498 N   0  0  0  0  0  0  0  0  0  0  0  0
    3.5926   -0.7905    0.9309 C   0  0  0  0  0  0  0  0  0  0  0  0
    4.0198    0.1257    2.0692 C   0  0  0  0  0  0  0  0  0  0  0  0
    4.9826   -0.0757    2.7935 O   0  0  0  0  0  0  0  0  0  0  0  0
    3.2062    1.2038    2.2076 O   0  0  0  0  0  0  0  0  0  0  0  0
    2.8192    0.5646   -0.9572 C   0  0  0  0  0  0  0  0  0  0  0  0
    3.6326    1.5688   -0.8952 N   0  0  0  0  0  0  0  0  0  0  0  0
    2.2544    0.2106   -2.1307 N   0  0  0  0  0  0  0  0  0  0  0  0
    2.8269    0.6474   -3.5898 P   0  0  0  0  0  0  0  0  0  0  0  0
    1.9369    0.6395   -4.7897 O   0  0  0  0  0  0  0  0  0  0  0  0
    3.6272    2.0249   -3.4362 O   0  0  0  0  0  0  0  0  0  0  0  0
    4.0748   -0.3269   -3.8559 O   0  0  0  0  0  0  0  0  0  0  0  0
    0.3854   -0.3382   -0.1557 H   0  0  0  0  0  0  0  0  0  0  0  0
    0.9872   -1.1694    1.2778 H   0  0  0  0  0  0  0  0  0  0  0  0
    1.2889   -1.8670   -0.3285 H   0  0  0  0  0  0  0  0  0  0  0  0
    4.4528   -0.9662    0.2755 H   0  0  0  0  0  0  0  0  0  0  0  0
    3.2811   -1.7449    1.3689 H   0  0  0  0  0  0  0  0  0  0  0  0
    2.4905    1.1501    1.5313 H   0  0  0  0  0  0  0  0  0  0  0  0
    3.9460    1.7362    0.0677 H   0  0  0  0  0  0  0  0  0  0  0  0
    1.8589   -0.7118   -2.1567 H   0  0  0  0  0  0  0  0  0  0  0  0
    3.8279    2.1529   -2.4738 H   0  0  0  0  0  0  0  0  0  0  0  0
    4.4293   -0.1444   -4.7464 H   0  0  0  0  0  0  0  0  0  0  0  0
  1  2  1  0  0  0  0
  1 14  1  0  0  0  0
  1 15  1  0  0  0  0
  1 16  1  0  0  0  0
  2  3  1  0  0  0  0
  2  7  1  0  0  0  0
  3  4  1  0  0  0  0
  3 17  1  0  0  0  0
  3 18  1  0  0  0  0
  4  5  2  0  0  0  0
  4  6  1  0  0  0  0
  6 19  1  0  0  0  0
  7  8  2  0  0  0  0
  7  9  1  0  0  0  0
  8 20  1  0  0  0  0
  9 10  1  0  0  0  0
  9 21  1  0  0  0  0
 10 11  2  0  0  0  0
 10 12  1  0  0  0  0
 10 13  1  0  0  0  0
 12 22  1  0  0  0  0
 13 23  1  0  0  0  0
M  END
$$$$
