CHEBI:16874
 OpenBabel04242415293D

 79 79  0  0  1  0  0  0  0  0999 V2000
   36.2525   13.0924   15.3401 C   0  0  0  0  0  0  0  0  0  0  0  0
   35.1695   12.9351   16.3953 C   0  0  0  0  0  0  0  0  0  0  0  0
   34.0948   11.9460   15.9475 C   0  0  0  0  0  0  0  0  0  0  0  0
   33.0117   11.7776   17.0142 C   0  0  0  0  0  0  0  0  0  0  0  0
   31.9207   10.8158   16.5415 C   0  0  0  0  0  0  0  0  0  0  0  0
   30.8270   10.6496   17.5981 C   0  0  0  0  0  0  0  0  0  0  0  0
   29.7130    9.6866   17.1754 C   0  0  0  0  0  0  0  0  0  0  0  0
   28.9957   10.0371   15.8688 C   0  0  0  0  0  0  0  0  0  0  0  0
   28.3358   11.4183   15.8800 C   0  0  0  0  0  0  0  0  0  0  0  0
   27.6649   11.7058   14.5362 C   0  0  0  0  0  0  0  0  0  0  0  0
   26.9453   13.0565   14.5380 C   0  0  0  0  0  0  0  0  0  0  0  0
   26.3717   13.4307   13.1668 C   0  0  0  0  0  0  0  0  0  0  0  0
   25.2841   12.4667   12.6893 C   0  0  0  0  0  0  0  0  0  0  0  0
   24.7428   12.8625   11.3447 C   0  0  0  0  0  0  0  0  0  0  0  0
   24.8615   12.0879   10.2557 C   0  0  0  0  0  0  0  0  0  0  0  0
   24.3128   12.4174    8.8942 C   0  0  1  0  0  0  0  0  0  0  0  0
   25.4380   12.4348    8.0161 O   0  0  0  0  0  0  0  0  0  0  0  0
   23.2771   11.3573    8.4112 C   0  0  1  0  0  0  0  0  0  0  0  0
   22.0883   11.2487    9.2915 N   0  0  0  0  0  0  0  0  0  0  0  0
   22.8215   11.6596    6.9687 C   0  0  0  0  0  0  0  0  0  0  0  0
   22.2177   12.9587    6.8996 O   0  0  0  0  0  0  0  0  0  0  0  0
   21.7369   13.3060    5.5918 C   0  0  2  0  0  0  0  0  0  0  0  0
   20.7429   12.3594    5.1873 O   0  0  0  0  0  0  0  0  0  0  0  0
   20.1925   12.6278    3.8904 C   0  0  2  0  0  0  0  0  0  0  0  0
   19.0977   11.5868    3.6405 C   0  0  0  0  0  0  0  0  0  0  0  0
   19.6404   10.2698    3.7566 O   0  0  0  0  0  0  0  0  0  0  0  0
   21.3042   12.5581    2.8316 C   0  0  2  0  0  0  0  0  0  0  0  0
   21.9967   11.2976    2.8409 O   0  0  0  0  0  0  0  0  0  0  0  0
   22.3317   13.6453    3.1394 C   0  0  2  0  0  0  0  0  0  0  0  0
   23.4287   13.5592    2.2139 O   0  0  0  0  0  0  0  0  0  0  0  0
   22.8814   13.5002    4.5621 C   0  0  1  0  0  0  0  0  0  0  0  0
   23.6590   14.6721    4.8698 O   0  0  0  0  0  0  0  0  0  0  0  0
   37.0095   13.8072   15.6773 H   0  0  0  0  0  0  0  0  0  0  0  0
   35.8326   13.4607   14.3985 H   0  0  0  0  0  0  0  0  0  0  0  0
   36.7501   12.1373   15.1440 H   0  0  0  0  0  0  0  0  0  0  0  0
   34.7154   13.9131   16.5933 H   0  0  0  0  0  0  0  0  0  0  0  0
   35.6251   12.5927   17.3315 H   0  0  0  0  0  0  0  0  0  0  0  0
   34.5541   10.9729   15.7351 H   0  0  0  0  0  0  0  0  0  0  0  0
   33.6399   12.2984   15.0135 H   0  0  0  0  0  0  0  0  0  0  0  0
   32.5653   12.7535   17.2415 H   0  0  0  0  0  0  0  0  0  0  0  0
   33.4608   11.4020   17.9413 H   0  0  0  0  0  0  0  0  0  0  0  0
   32.3614    9.8380   16.3129 H   0  0  0  0  0  0  0  0  0  0  0  0
   31.4922   11.2048   15.6114 H   0  0  0  0  0  0  0  0  0  0  0  0
   30.3986   11.6267   17.8488 H   0  0  0  0  0  0  0  0  0  0  0  0
   31.2766   10.2672   18.5231 H   0  0  0  0  0  0  0  0  0  0  0  0
   28.9739    9.6329   17.9843 H   0  0  0  0  0  0  0  0  0  0  0  0
   30.1350    8.6786   17.0763 H   0  0  0  0  0  0  0  0  0  0  0  0
   28.2260    9.2760   15.6877 H   0  0  0  0  0  0  0  0  0  0  0  0
   29.6952    9.9640   15.0281 H   0  0  0  0  0  0  0  0  0  0  0  0
   29.0789   12.1982   16.0774 H   0  0  0  0  0  0  0  0  0  0  0  0
   27.5926   11.4624   16.6850 H   0  0  0  0  0  0  0  0  0  0  0  0
   26.9543   10.9011   14.3197 H   0  0  0  0  0  0  0  0  0  0  0  0
   28.4215   11.6953   13.7420 H   0  0  0  0  0  0  0  0  0  0  0  0
   27.6492   13.8412   14.8419 H   0  0  0  0  0  0  0  0  0  0  0  0
   26.1407   13.0464   15.2832 H   0  0  0  0  0  0  0  0  0  0  0  0
   27.1857   13.4725   12.4318 H   0  0  0  0  0  0  0  0  0  0  0  0
   25.9557   14.4444   13.2311 H   0  0  0  0  0  0  0  0  0  0  0  0
   24.4578   12.4514   13.4094 H   0  0  0  0  0  0  0  0  0  0  0  0
   25.6780   11.4459   12.6383 H   0  0  0  0  0  0  0  0  0  0  0  0
   24.2183   13.8143   11.2851 H   0  0  0  0  0  0  0  0  0  0  0  0
   25.3856   11.1354   10.3264 H   0  0  0  0  0  0  0  0  0  0  0  0
   23.8612   13.4169    8.8852 H   0  0  0  0  0  0  0  0  0  0  0  0
   25.9842   13.1908    8.2940 H   0  0  0  0  0  0  0  0  0  0  0  0
   23.7638   10.3734    8.3930 H   0  0  0  0  0  0  0  0  0  0  0  0
   21.5451   12.1068    9.1729 H   0  0  0  0  0  0  0  0  0  0  0  0
   22.3954   11.2396   10.2636 H   0  0  0  0  0  0  0  0  0  0  0  0
   22.1024   10.8973    6.6458 H   0  0  0  0  0  0  0  0  0  0  0  0
   23.6914   11.6029    6.3097 H   0  0  0  0  0  0  0  0  0  0  0  0
   21.2332   14.2710    5.7290 H   0  0  0  0  0  0  0  0  0  0  0  0
   19.7313   13.6235    3.8934 H   0  0  0  0  0  0  0  0  0  0  0  0
   18.2946   11.6811    4.3789 H   0  0  0  0  0  0  0  0  0  0  0  0
   18.6681   11.6978    2.6403 H   0  0  0  0  0  0  0  0  0  0  0  0
   19.9005   10.1863    4.6981 H   0  0  0  0  0  0  0  0  0  0  0  0
   20.9027   12.6913    1.8214 H   0  0  0  0  0  0  0  0  0  0  0  0
   21.3149   10.6009    2.9693 H   0  0  0  0  0  0  0  0  0  0  0  0
   21.8899   14.6397    3.0074 H   0  0  0  0  0  0  0  0  0  0  0  0
   23.5980   12.5985    2.1087 H   0  0  0  0  0  0  0  0  0  0  0  0
   23.5850   12.6642    4.5835 H   0  0  0  0  0  0  0  0  0  0  0  0
   24.2778   14.7763    4.1206 H   0  0  0  0  0  0  0  0  0  0  0  0
  1  2  1  0  0  0  0
  1 33  1  0  0  0  0
  1 34  1  0  0  0  0
  1 35  1  0  0  0  0
  2  3  1  0  0  0  0
  2 36  1  0  0  0  0
  2 37  1  0  0  0  0
  3  4  1  0  0  0  0
  3 38  1  0  0  0  0
  3 39  1  0  0  0  0
  4  5  1  0  0  0  0
  4 40  1  0  0  0  0
  4 41  1  0  0  0  0
  5  6  1  0  0  0  0
  5 42  1  0  0  0  0
  5 43  1  0  0  0  0
  6  7  1  0  0  0  0
  6 44  1  0  0  0  0
  6 45  1  0  0  0  0
  7  8  1  0  0  0  0
  7 46  1  0  0  0  0
  7 47  1  0  0  0  0
  8  9  1  0  0  0  0
  8 48  1  0  0  0  0
  8 49  1  0  0  0  0
  9 10  1  0  0  0  0
  9 50  1  0  0  0  0
  9 51  1  0  0  0  0
 10 11  1  0  0  0  0
 10 52  1  0  0  0  0
 10 53  1  0  0  0  0
 11 12  1  0  0  0  0
 11 54  1  0  0  0  0
 11 55  1  0  0  0  0
 12 13  1  0  0  0  0
 12 56  1  0  0  0  0
 12 57  1  0  0  0  0
 13 14  1  0  0  0  0
 13 58  1  0  0  0  0
 13 59  1  0  0  0  0
 14 15  2  0  0  0  0
 14 60  1  0  0  0  0
 15 16  1  0  0  0  0
 15 61  1  0  0  0  0
 16 17  1  0  0  0  0
 16 18  1  0  0  0  0
 16 62  1  1  0  0  0
 17 63  1  0  0  0  0
 18 19  1  0  0  0  0
 18 20  1  0  0  0  0
 18 64  1  6  0  0  0
 19 65  1  0  0  0  0
 19 66  1  0  0  0  0
 20 21  1  0  0  0  0
 20 67  1  0  0  0  0
 20 68  1  0  0  0  0
 22 23  1  0  0  0  0
 22 31  1  0  0  0  0
 22 21  1  0  0  0  0
 22 69  1  1  0  0  0
 23 24  1  0  0  0  0
 24 27  1  0  0  0  0
 24 25  1  0  0  0  0
 24 70  1  6  0  0  0
 25 26  1  0  0  0  0
 25 71  1  0  0  0  0
 25 72  1  0  0  0  0
 26 73  1  0  0  0  0
 27 28  1  0  0  0  0
 27 29  1  0  0  0  0
 27 74  1  6  0  0  0
 28 75  1  0  0  0  0
 29 30  1  0  0  0  0
 29 31  1  0  0  0  0
 29 76  1  6  0  0  0
 30 77  1  0  0  0  0
 31 32  1  0  0  0  0
 31 78  1  1  0  0  0
 32 79  1  0  0  0  0
M  END
$$$$
