CHEBI:4788
 OpenBabel04242411013D

 54 56  0  0  0  0  0  0  0  0999 V2000
   -0.4264    3.1086   -1.1762 C   0  0  0  0  0  0  0  0  0  0  0  0
    0.8199    2.4238   -1.2290 O   0  0  0  0  0  0  0  0  0  0  0  0
    1.4418    2.3665   -2.4456 C   0  0  0  0  0  0  0  0  0  0  0  0
    0.9561    2.8994   -3.6388 C   0  0  0  0  0  0  0  0  0  0  0  0
    1.6995    2.7708   -4.8170 C   0  0  0  0  0  0  0  0  0  0  0  0
    2.9308    2.1017   -4.8164 C   0  0  0  0  0  0  0  0  0  0  0  0
    3.6813    2.0108   -6.1033 C   0  0  0  0  0  0  0  0  0  0  0  0
    3.5351    2.9240   -6.9080 O   0  0  0  0  0  0  0  0  0  0  0  0
    4.4448    0.8671   -6.2679 N   0  0  0  0  0  0  0  0  0  0  0  0
    5.2485    0.5151   -7.3827 C   0  0  0  0  0  0  0  0  0  0  0  0
    5.4058    1.3679   -8.4838 C   0  0  0  0  0  0  0  0  0  0  0  0
    6.1987    1.0073   -9.5768 C   0  0  0  0  0  0  0  0  0  0  0  0
    6.8585   -0.2128   -9.5852 C   0  0  0  0  0  0  0  0  0  0  0  0
    6.7221   -1.0735   -8.5000 C   0  0  0  0  0  0  0  0  0  0  0  0
    5.9168   -0.7318   -7.3935 C   0  0  0  0  0  0  0  0  0  0  0  0
    5.8436   -1.7394   -6.2613 C   0  0  0  0  0  0  0  0  0  0  0  0
    6.8502   -1.4151   -5.1489 C   0  0  0  0  0  0  0  0  0  0  0  0
    6.8996   -2.4489   -3.9947 C   0  0  0  0  0  0  0  0  0  0  0  0
    5.5725   -2.4001   -3.2053 C   0  0  0  0  0  0  0  0  0  0  0  0
    5.5754   -3.3639   -2.0261 C   0  0  0  0  0  0  0  0  0  0  0  0
    5.9213   -4.7650   -2.5041 C   0  0  0  0  0  0  0  0  0  0  0  0
    7.2318   -4.7635   -3.2863 C   0  0  0  0  0  0  0  0  0  0  0  0
    7.1953   -3.8340   -4.4321 N   0  0  0  0  0  0  0  0  0  0  0  0
    8.4702   -3.9331   -5.1538 C   0  0  0  0  0  0  0  0  0  0  0  0
    3.4265    1.5808   -3.6168 C   0  0  0  0  0  0  0  0  0  0  0  0
    2.6776    1.7109   -2.4418 C   0  0  0  0  0  0  0  0  0  0  0  0
   -0.7859    3.0705   -0.1434 H   0  0  0  0  0  0  0  0  0  0  0  0
   -1.1742    2.6167   -1.8070 H   0  0  0  0  0  0  0  0  0  0  0  0
   -0.3100    4.1628   -1.4494 H   0  0  0  0  0  0  0  0  0  0  0  0
    0.0083    3.4251   -3.6911 H   0  0  0  0  0  0  0  0  0  0  0  0
    1.3139    3.1986   -5.7413 H   0  0  0  0  0  0  0  0  0  0  0  0
    4.3706    0.1701   -5.5433 H   0  0  0  0  0  0  0  0  0  0  0  0
    4.9187    2.3363   -8.5307 H   0  0  0  0  0  0  0  0  0  0  0  0
    6.2953    1.6882  -10.4185 H   0  0  0  0  0  0  0  0  0  0  0  0
    7.4768   -0.4939  -10.4331 H   0  0  0  0  0  0  0  0  0  0  0  0
    7.2493   -2.0257   -8.5193 H   0  0  0  0  0  0  0  0  0  0  0  0
    6.0370   -2.7411   -6.6650 H   0  0  0  0  0  0  0  0  0  0  0  0
    4.8186   -1.7866   -5.8807 H   0  0  0  0  0  0  0  0  0  0  0  0
    6.6179   -0.4296   -4.7237 H   0  0  0  0  0  0  0  0  0  0  0  0
    7.8531   -1.3046   -5.5815 H   0  0  0  0  0  0  0  0  0  0  0  0
    7.6982   -2.1210   -3.3129 H   0  0  0  0  0  0  0  0  0  0  0  0
    4.7276   -2.6554   -3.8559 H   0  0  0  0  0  0  0  0  0  0  0  0
    5.3942   -1.3831   -2.8360 H   0  0  0  0  0  0  0  0  0  0  0  0
    4.5941   -3.3643   -1.5390 H   0  0  0  0  0  0  0  0  0  0  0  0
    6.3077   -3.0337   -1.2796 H   0  0  0  0  0  0  0  0  0  0  0  0
    5.1128   -5.1504   -3.1381 H   0  0  0  0  0  0  0  0  0  0  0  0
    6.0032   -5.4398   -1.6446 H   0  0  0  0  0  0  0  0  0  0  0  0
    7.4078   -5.7851   -3.6457 H   0  0  0  0  0  0  0  0  0  0  0  0
    8.0599   -4.5110   -2.6104 H   0  0  0  0  0  0  0  0  0  0  0  0
    8.6838   -4.9755   -5.4186 H   0  0  0  0  0  0  0  0  0  0  0  0
    9.3097   -3.5535   -4.5602 H   0  0  0  0  0  0  0  0  0  0  0  0
    8.4376   -3.3901   -6.1029 H   0  0  0  0  0  0  0  0  0  0  0  0
    4.4006    1.1044   -3.5647 H   0  0  0  0  0  0  0  0  0  0  0  0
    3.0657    1.3101   -1.5077 H   0  0  0  0  0  0  0  0  0  0  0  0
  1  2  1  0  0  0  0
  1 27  1  0  0  0  0
  1 28  1  0  0  0  0
  1 29  1  0  0  0  0
  2  3  1  0  0  0  0
  3  4  1  0  0  0  0
  3 26  2  0  0  0  0
  4  5  2  0  0  0  0
  4 30  1  0  0  0  0
  5  6  1  0  0  0  0
  5 31  1  0  0  0  0
  6  7  1  0  0  0  0
  6 25  2  0  0  0  0
  7  8  2  0  0  0  0
  7  9  1  0  0  0  0
  9 10  1  0  0  0  0
  9 32  1  0  0  0  0
 10 11  1  0  0  0  0
 10 15  2  0  0  0  0
 11 12  2  0  0  0  0
 11 33  1  0  0  0  0
 12 13  1  0  0  0  0
 12 34  1  0  0  0  0
 13 14  2  0  0  0  0
 13 35  1  0  0  0  0
 14 15  1  0  0  0  0
 14 36  1  0  0  0  0
 15 16  1  0  0  0  0
 16 17  1  0  0  0  0
 16 37  1  0  0  0  0
 16 38  1  0  0  0  0
 17 18  1  0  0  0  0
 17 39  1  0  0  0  0
 17 40  1  0  0  0  0
 18 19  1  0  0  0  0
 18 23  1  0  0  0  0
 18 41  1  0  0  0  0
 19 20  1  0  0  0  0
 19 42  1  0  0  0  0
 19 43  1  0  0  0  0
 20 21  1  0  0  0  0
 20 44  1  0  0  0  0
 20 45  1  0  0  0  0
 21 22  1  0  0  0  0
 21 46  1  0  0  0  0
 21 47  1  0  0  0  0
 22 23  1  0  0  0  0
 22 48  1  0  0  0  0
 22 49  1  0  0  0  0
 23 24  1  0  0  0  0
 24 50  1  0  0  0  0
 24 51  1  0  0  0  0
 24 52  1  0  0  0  0
 25 26  1  0  0  0  0
 25 53  1  0  0  0  0
 26 54  1  0  0  0  0
M  END
$$$$
