CHEBI:15533
 OpenBabel04242412393D

107109  0  0  1  0  0  0  0  0999 V2000
   32.2869    6.9008   22.1425 C   0  0  0  0  0  0  0  0  0  0  0  0
   31.8042    5.4707   21.9596 C   0  0  0  0  0  0  0  0  0  0  0  0
   32.9032    4.4608   21.6204 C   0  0  0  0  0  0  0  0  0  0  0  0
   33.8956    4.8267   20.5140 C   0  0  0  0  0  0  0  0  0  0  0  0
   33.3454    4.8096   19.0926 C   0  0  0  0  0  0  0  0  0  0  0  0
   32.3810    5.9476   18.7623 C   0  0  0  0  0  0  0  0  0  0  0  0
   32.1292    5.9640   17.2734 C   0  0  0  0  0  0  0  0  0  0  0  0
   31.0309    6.9229   16.8775 C   0  0  0  0  0  0  0  0  0  0  0  0
   31.2161    8.1227   16.7849 O   0  0  0  0  0  0  0  0  0  0  0  0
   29.4171    6.2542   16.6673 S   0  0  0  0  0  0  0  0  0  0  0  0
   29.7192    4.7842   15.6467 C   0  0  0  0  0  0  0  0  0  0  0  0
   30.5150    5.0549   14.3700 C   0  0  0  0  0  0  0  0  0  0  0  0
   31.9560    5.0819   14.5210 N   0  0  0  0  0  0  0  0  0  0  0  0
   32.7196    5.3399   13.4068 C   0  0  0  0  0  0  0  0  0  0  0  0
   32.2454    5.8129   12.3776 O   0  0  0  0  0  0  0  0  0  0  0  0
   34.1634    4.9073   13.4875 C   0  0  0  0  0  0  0  0  0  0  0  0
   34.4646    3.5149   14.0540 C   0  0  0  0  0  0  0  0  0  0  0  0
   33.3752    2.7002   14.5919 N   0  0  0  0  0  0  0  0  0  0  0  0
   32.4664    1.8817   13.9766 C   0  0  0  0  0  0  0  0  0  0  0  0
   31.9917    0.9999   14.7005 O   0  0  0  0  0  0  0  0  0  0  0  0
   32.0716    1.9870   12.4739 C   0  0  2  0  0  0  0  0  0  0  0  0
   32.7059    2.9967   11.7078 O   0  0  0  0  0  0  0  0  0  0  0  0
   30.5079    1.7941   12.1281 C   0  0  0  0  0  0  0  0  0  0  0  0
   30.3662    0.3377   11.6164 C   0  0  0  0  0  0  0  0  0  0  0  0
   29.4826    1.9175   13.2897 C   0  0  0  0  0  0  0  0  0  0  0  0
   30.0807    2.7846   11.0083 C   0  0  0  0  0  0  0  0  0  0  0  0
   28.6874    2.9474   10.8134 O   0  0  0  0  0  0  0  0  0  0  0  0
   27.7684    1.9436    9.9849 P   0  0  0  0  0  0  0  0  0  0  0  0
   27.0148    0.9652   10.8286 O   0  0  0  0  0  0  0  0  0  0  0  0
   26.7170    2.9233    9.2746 O   0  0  0  0  0  0  0  0  0  0  0  0
   28.5751    1.3130    8.7856 O   0  0  0  0  0  0  0  0  0  0  0  0
   29.5377    1.9987    7.7390 P   0  0  0  0  0  0  0  0  0  0  0  0
   30.9265    1.4506    7.7193 O   0  0  0  0  0  0  0  0  0  0  0  0
   28.7945    1.7231    6.3462 O   0  0  0  0  0  0  0  0  0  0  0  0
   29.4070    3.5817    7.9401 O   0  0  0  0  0  0  0  0  0  0  0  0
   30.1797    4.4361    7.1042 C   0  0  0  0  0  0  0  0  0  0  0  0
   30.2415    5.8422    7.7315 C   0  0  1  0  0  0  0  0  0  0  0  0
   31.4001    5.8986    8.6353 O   0  0  0  0  0  0  0  0  0  0  0  0
   32.3312    6.8498    8.0625 C   0  0  1  0  0  0  0  0  0  0  0  0
   33.6993    6.5366    8.3936 N   0  0  0  0  0  0  0  0  0  0  0  0
   34.5276    7.3823    9.0931 C   0  0  0  0  0  0  0  0  0  0  0  0
   35.7680    6.9479    9.1283 N   0  0  0  0  0  0  0  0  0  0  0  0
   35.7352    5.7651    8.4193 C   0  0  0  0  0  0  0  0  0  0  0  0
   36.7435    4.8510    8.0769 C   0  0  0  0  0  0  0  0  0  0  0  0
   38.0741    5.0194    8.4504 N   0  0  0  0  0  0  0  0  0  0  0  0
   36.4156    3.7804    7.3203 N   0  0  0  0  0  0  0  0  0  0  0  0
   35.1239    3.6354    6.9460 C   0  0  0  0  0  0  0  0  0  0  0  0
   34.0771    4.4478    7.1993 N   0  0  0  0  0  0  0  0  0  0  0  0
   34.4580    5.4930    7.9514 C   0  0  0  0  0  0  0  0  0  0  0  0
   31.9892    6.8927    6.5747 C   0  0  2  0  0  0  0  0  0  0  0  0
   32.6665    7.8839    5.8302 O   0  0  0  0  0  0  0  0  0  0  0  0
   30.4679    6.9781    6.7035 C   0  0  2  0  0  0  0  0  0  0  0  0
   30.0461    8.1828    7.3601 O   0  0  0  0  0  0  0  0  0  0  0  0
   29.9712    9.5888    6.6181 P   0  0  0  0  0  0  0  0  0  0  0  0
   31.1606    9.9602    5.8062 O   0  0  0  0  0  0  0  0  0  0  0  0
   28.5919    9.6067    5.8317 O   0  0  0  0  0  0  0  0  0  0  0  0
   29.7023   10.6128    7.8081 O   0  0  0  0  0  0  0  0  0  0  0  0
   33.0238    6.9646   22.9479 H   0  0  0  0  0  0  0  0  0  0  0  0
   31.4433    7.5507   22.3954 H   0  0  0  0  0  0  0  0  0  0  0  0
   32.7414    7.3058   21.2361 H   0  0  0  0  0  0  0  0  0  0  0  0
   31.0107    5.4390   21.2086 H   0  0  0  0  0  0  0  0  0  0  0  0
   31.3238    5.1480   22.8912 H   0  0  0  0  0  0  0  0  0  0  0  0
   32.4317    3.4999   21.3776 H   0  0  0  0  0  0  0  0  0  0  0  0
   33.4865    4.2879   22.5335 H   0  0  0  0  0  0  0  0  0  0  0  0
   34.6999    4.0790   20.5469 H   0  0  0  0  0  0  0  0  0  0  0  0
   34.3791    5.7874   20.7186 H   0  0  0  0  0  0  0  0  0  0  0  0
   32.8630    3.8439   18.8930 H   0  0  0  0  0  0  0  0  0  0  0  0
   34.2009    4.8685   18.4057 H   0  0  0  0  0  0  0  0  0  0  0  0
   32.7851    6.9152   19.0717 H   0  0  0  0  0  0  0  0  0  0  0  0
   31.4250    5.8003   19.2670 H   0  0  0  0  0  0  0  0  0  0  0  0
   31.8944    4.9427   16.9826 H   0  0  0  0  0  0  0  0  0  0  0  0
   33.0367    6.2555   16.7325 H   0  0  0  0  0  0  0  0  0  0  0  0
   28.7295    4.4088   15.3633 H   0  0  0  0  0  0  0  0  0  0  0  0
   30.1741    3.9925   16.2526 H   0  0  0  0  0  0  0  0  0  0  0  0
   30.1633    5.9411   13.8349 H   0  0  0  0  0  0  0  0  0  0  0  0
   30.3686    4.2214   13.6940 H   0  0  0  0  0  0  0  0  0  0  0  0
   32.3529    4.3385   15.0898 H   0  0  0  0  0  0  0  0  0  0  0  0
   34.7162    5.6756   14.0413 H   0  0  0  0  0  0  0  0  0  0  0  0
   34.5643    4.9394   12.4653 H   0  0  0  0  0  0  0  0  0  0  0  0
   35.1273    3.6744   14.9172 H   0  0  0  0  0  0  0  0  0  0  0  0
   35.0392    2.9119   13.3441 H   0  0  0  0  0  0  0  0  0  0  0  0
   33.5745    2.2954   15.5035 H   0  0  0  0  0  0  0  0  0  0  0  0
   32.5756    1.0924   12.0815 H   0  0  0  0  0  0  0  0  0  0  0  0
   32.2426    3.8500   11.7815 H   0  0  0  0  0  0  0  0  0  0  0  0
   30.6852   -0.3706   12.3904 H   0  0  0  0  0  0  0  0  0  0  0  0
   30.9763    0.1669   10.7236 H   0  0  0  0  0  0  0  0  0  0  0  0
   29.3366    0.0817   11.3595 H   0  0  0  0  0  0  0  0  0  0  0  0
   29.8849    1.7137   14.2792 H   0  0  0  0  0  0  0  0  0  0  0  0
   28.6405    1.2278   13.1547 H   0  0  0  0  0  0  0  0  0  0  0  0
   29.0083    2.9014   13.3245 H   0  0  0  0  0  0  0  0  0  0  0  0
   30.5854    2.5471   10.0730 H   0  0  0  0  0  0  0  0  0  0  0  0
   30.4003    3.7954   11.2758 H   0  0  0  0  0  0  0  0  0  0  0  0
   25.8433    2.8240    9.6976 H   0  0  0  0  0  0  0  0  0  0  0  0
   29.0347    0.8382    6.0127 H   0  0  0  0  0  0  0  0  0  0  0  0
   29.6896    4.4641    6.1272 H   0  0  0  0  0  0  0  0  0  0  0  0
   31.1825    4.0109    6.9982 H   0  0  0  0  0  0  0  0  0  0  0  0
   29.3553    6.0273    8.3497 H   0  0  0  0  0  0  0  0  0  0  0  0
   32.1294    7.8256    8.5248 H   0  0  0  0  0  0  0  0  0  0  0  0
   34.1772    8.3071    9.5352 H   0  0  0  0  0  0  0  0  0  0  0  0
   38.2917    5.9863    8.6698 H   0  0  0  0  0  0  0  0  0  0  0  0
   38.6966    4.5375    7.8156 H   0  0  0  0  0  0  0  0  0  0  0  0
   34.9025    2.7503    6.3565 H   0  0  0  0  0  0  0  0  0  0  0  0
   32.2371    5.9423    6.0888 H   0  0  0  0  0  0  0  0  0  0  0  0
   32.1764    8.7289    5.7852 H   0  0  0  0  0  0  0  0  0  0  0  0
   29.9156    6.8595    5.7676 H   0  0  0  0  0  0  0  0  0  0  0  0
   28.4564   10.4622    5.3842 H   0  0  0  0  0  0  0  0  0  0  0  0
   30.5308   10.9451    8.2016 H   0  0  0  0  0  0  0  0  0  0  0  0
  1  2  1  0  0  0  0
  1 58  1  0  0  0  0
  1 59  1  0  0  0  0
  1 60  1  0  0  0  0
  2  3  1  0  0  0  0
  2 61  1  0  0  0  0
  2 62  1  0  0  0  0
  3  4  1  0  0  0  0
  3 63  1  0  0  0  0
  3 64  1  0  0  0  0
  4  5  1  0  0  0  0
  4 65  1  0  0  0  0
  4 66  1  0  0  0  0
  5  6  1  0  0  0  0
  5 67  1  0  0  0  0
  5 68  1  0  0  0  0
  6  7  1  0  0  0  0
  6 69  1  0  0  0  0
  6 70  1  0  0  0  0
  7  8  1  0  0  0  0
  7 71  1  0  0  0  0
  7 72  1  0  0  0  0
  8  9  2  0  0  0  0
  8 10  1  0  0  0  0
 10 11  1  0  0  0  0
 11 12  1  0  0  0  0
 11 73  1  0  0  0  0
 11 74  1  0  0  0  0
 12 13  1  0  0  0  0
 12 75  1  0  0  0  0
 12 76  1  0  0  0  0
 13 14  1  0  0  0  0
 13 77  1  0  0  0  0
 14 15  2  0  0  0  0
 14 16  1  0  0  0  0
 16 17  1  0  0  0  0
 16 78  1  0  0  0  0
 16 79  1  0  0  0  0
 17 18  1  0  0  0  0
 17 80  1  0  0  0  0
 17 81  1  0  0  0  0
 18 19  1  0  0  0  0
 18 82  1  0  0  0  0
 19 20  2  0  0  0  0
 21 23  1  0  0  0  0
 21 22  1  0  0  0  0
 21 19  1  0  0  0  0
 21 83  1  6  0  0  0
 22 84  1  0  0  0  0
 23 24  1  0  0  0  0
 23 25  1  0  0  0  0
 23 26  1  0  0  0  0
 24 85  1  0  0  0  0
 24 86  1  0  0  0  0
 24 87  1  0  0  0  0
 25 88  1  0  0  0  0
 25 89  1  0  0  0  0
 25 90  1  0  0  0  0
 26 27  1  0  0  0  0
 26 91  1  0  0  0  0
 26 92  1  0  0  0  0
 27 28  1  0  0  0  0
 28 29  2  0  0  0  0
 28 30  1  0  0  0  0
 28 31  1  0  0  0  0
 30 93  1  0  0  0  0
 31 32  1  0  0  0  0
 32 33  2  0  0  0  0
 32 34  1  0  0  0  0
 32 35  1  0  0  0  0
 34 94  1  0  0  0  0
 35 36  1  0  0  0  0
 36 95  1  0  0  0  0
 36 96  1  0  0  0  0
 37 38  1  0  0  0  0
 37 52  1  0  0  0  0
 37 36  1  0  0  0  0
 37 97  1  1  0  0  0
 38 39  1  0  0  0  0
 39 50  1  0  0  0  0
 39 40  1  0  0  0  0
 39 98  1  1  0  0  0
 40 41  1  0  0  0  0
 40 49  1  0  0  0  0
 41 42  2  0  0  0  0
 41 99  1  0  0  0  0
 42 43  1  0  0  0  0
 43 44  1  0  0  0  0
 43 49  2  0  0  0  0
 44 45  1  0  0  0  0
 44 46  2  0  0  0  0
 45100  1  0  0  0  0
 45101  1  0  0  0  0
 46 47  1  0  0  0  0
 47 48  2  0  0  0  0
 47102  1  0  0  0  0
 48 49  1  0  0  0  0
 50 51  1  0  0  0  0
 50 52  1  0  0  0  0
 50103  1  6  0  0  0
 51104  1  0  0  0  0
 52 53  1  0  0  0  0
 52105  1  6  0  0  0
 53 54  1  0  0  0  0
 54 55  2  0  0  0  0
 54 56  1  0  0  0  0
 54 57  1  0  0  0  0
 56106  1  0  0  0  0
 57107  1  0  0  0  0
M  END
$$$$
