CHEBI:16319
 OpenBabel04242414113D

 23 22  0  0  1  0  0  0  0  0999 V2000
    0.7064    0.7360    0.4335 C   0  0  0  0  0  0  0  0  0  0  0  0
    2.1306    0.8305    0.9014 C   0  0  0  0  0  0  0  0  0  0  0  0
    2.4960    0.5187    2.0319 O   0  0  0  0  0  0  0  0  0  0  0  0
    3.0121    1.3309   -0.0143 N   0  0  0  0  0  0  0  0  0  0  0  0
    4.4687    1.2798    0.1464 C   0  0  1  0  0  0  0  0  0  0  0  0
    5.1878    1.4117   -1.2149 C   0  0  0  0  0  0  0  0  0  0  0  0
    5.1379    2.7902   -1.8851 C   0  0  0  0  0  0  0  0  0  0  0  0
    3.7989    3.1628   -2.4721 C   0  0  0  0  0  0  0  0  0  0  0  0
    2.8022    2.4458   -2.4237 O   0  0  0  0  0  0  0  0  0  0  0  0
    5.0528    2.2553    1.1945 C   0  0  0  0  0  0  0  0  0  0  0  0
    6.1478    2.7958    1.0856 O   0  0  0  0  0  0  0  0  0  0  0  0
    4.3219    2.3864    2.3238 O   0  0  0  0  0  0  0  0  0  0  0  0
    0.5476   -0.2335   -0.0456 H   0  0  0  0  0  0  0  0  0  0  0  0
    0.4740    1.5368   -0.2741 H   0  0  0  0  0  0  0  0  0  0  0  0
    0.0364    0.8331    1.2923 H   0  0  0  0  0  0  0  0  0  0  0  0
    2.6506    1.5507   -0.9460 H   0  0  0  0  0  0  0  0  0  0  0  0
    4.6962    0.2781    0.5365 H   0  0  0  0  0  0  0  0  0  0  0  0
    4.7868    0.6580   -1.9051 H   0  0  0  0  0  0  0  0  0  0  0  0
    6.2460    1.1596   -1.0647 H   0  0  0  0  0  0  0  0  0  0  0  0
    5.8477    2.7972   -2.7209 H   0  0  0  0  0  0  0  0  0  0  0  0
    5.4360    3.5886   -1.2007 H   0  0  0  0  0  0  0  0  0  0  0  0
    3.7594    4.1507   -2.9631 H   0  0  0  0  0  0  0  0  0  0  0  0
    3.5805    1.7349    2.3718 H   0  0  0  0  0  0  0  0  0  0  0  0
  1  2  1  0  0  0  0
  1 13  1  0  0  0  0
  1 14  1  0  0  0  0
  1 15  1  0  0  0  0
  2  3  2  0  0  0  0
  2  4  1  0  0  0  0
  4  5  1  0  0  0  0
  4 16  1  0  0  0  0
  5  6  1  0  0  0  0
  5 10  1  0  0  0  0
  5 17  1  1  0  0  0
  6  7  1  0  0  0  0
  6 18  1  0  0  0  0
  6 19  1  0  0  0  0
  7  8  1  0  0  0  0
  7 20  1  0  0  0  0
  7 21  1  0  0  0  0
  8  9  2  0  0  0  0
  8 22  1  0  0  0  0
 10 11  2  0  0  0  0
 10 12  1  0  0  0  0
 12 23  1  0  0  0  0
M  END
$$$$
