CHEBI:16865
 OpenBabel04242415273D

 16 15  0  0  0  0  0  0  0  0999 V2000
    2.2457    0.7488    1.7390 N   0  0  0  0  0  0  0  0  0  0  0  0
    1.9191   -0.1212    0.6064 C   0  0  0  0  0  0  0  0  0  0  0  0
    2.7111    0.2748   -0.6402 C   0  0  0  0  0  0  0  0  0  0  0  0
    4.2165    0.0486   -0.4950 C   0  0  0  0  0  0  0  0  0  0  0  0
    4.9819    1.2555   -0.0068 C   0  0  0  0  0  0  0  0  0  0  0  0
    5.9124    1.7533   -0.6254 O   0  0  0  0  0  0  0  0  0  0  0  0
    4.5994    1.7126    1.2014 O   0  0  0  0  0  0  0  0  0  0  0  0
    1.7934    0.3590    2.5746 H   0  0  0  0  0  0  0  0  0  0  0  0
    1.7537    1.6423    1.6007 H   0  0  0  0  0  0  0  0  0  0  0  0
    0.8447   -0.0598    0.4021 H   0  0  0  0  0  0  0  0  0  0  0  0
    2.1420   -1.1596    0.8753 H   0  0  0  0  0  0  0  0  0  0  0  0
    2.4985    1.3162   -0.9118 H   0  0  0  0  0  0  0  0  0  0  0  0
    2.3493   -0.3481   -1.4679 H   0  0  0  0  0  0  0  0  0  0  0  0
    4.6204   -0.1876   -1.4880 H   0  0  0  0  0  0  0  0  0  0  0  0
    4.4510   -0.8063    0.1483 H   0  0  0  0  0  0  0  0  0  0  0  0
    3.8023    1.2361    1.5539 H   0  0  0  0  0  0  0  0  0  0  0  0
  1  2  1  0  0  0  0
  1  8  1  0  0  0  0
  1  9  1  0  0  0  0
  2  3  1  0  0  0  0
  2 10  1  0  0  0  0
  2 11  1  0  0  0  0
  3  4  1  0  0  0  0
  3 12  1  0  0  0  0
  3 13  1  0  0  0  0
  4  5  1  0  0  0  0
  4 14  1  0  0  0  0
  4 15  1  0  0  0  0
  5  6  2  0  0  0  0
  5  7  1  0  0  0  0
  7 16  1  0  0  0  0
M  END
$$$$
