CHEBI:16811
 OpenBabel04242415183D

 20 19  0  0  0  0  0  0  0  0999 V2000
    1.1027    2.0965   -1.4471 C   0  0  0  0  0  0  0  0  0  0  0  0
    2.0682    1.2005   -2.6893 S   0  0  0  0  0  0  0  0  0  0  0  0
    3.4457    0.6619   -1.6241 C   0  0  0  0  0  0  0  0  0  0  0  0
    4.5216   -0.1173   -2.3906 C   0  0  0  0  0  0  0  0  0  0  0  0
    5.3759    0.6772   -3.3895 C   0  0  0  0  0  0  0  0  0  0  0  0
    4.6282    1.1251   -4.6002 N   0  0  0  0  0  0  0  0  0  0  0  0
    6.0337    1.9048   -2.7363 C   0  0  0  0  0  0  0  0  0  0  0  0
    6.5395    1.9288   -1.6258 O   0  0  0  0  0  0  0  0  0  0  0  0
    5.9971    2.9781   -3.5688 O   0  0  0  0  0  0  0  0  0  0  0  0
    0.8003    1.4227   -0.6414 H   0  0  0  0  0  0  0  0  0  0  0  0
    0.2034    2.5040   -1.9165 H   0  0  0  0  0  0  0  0  0  0  0  0
    1.6865    2.9246   -1.0370 H   0  0  0  0  0  0  0  0  0  0  0  0
    3.0290    0.0096   -0.8490 H   0  0  0  0  0  0  0  0  0  0  0  0
    3.8768    1.5349   -1.1256 H   0  0  0  0  0  0  0  0  0  0  0  0
    4.0680   -0.9787   -2.8984 H   0  0  0  0  0  0  0  0  0  0  0  0
    5.2023   -0.5422   -1.6401 H   0  0  0  0  0  0  0  0  0  0  0  0
    6.1995    0.0452   -3.7426 H   0  0  0  0  0  0  0  0  0  0  0  0
    3.6931    1.4327   -4.2871 H   0  0  0  0  0  0  0  0  0  0  0  0
    4.4108    0.2910   -5.1548 H   0  0  0  0  0  0  0  0  0  0  0  0
    5.5235    2.6638   -4.3818 H   0  0  0  0  0  0  0  0  0  0  0  0
  1  2  1  0  0  0  0
  1 10  1  0  0  0  0
  1 11  1  0  0  0  0
  1 12  1  0  0  0  0
  2  3  1  0  0  0  0
  3  4  1  0  0  0  0
  3 13  1  0  0  0  0
  3 14  1  0  0  0  0
  4  5  1  0  0  0  0
  4 15  1  0  0  0  0
  4 16  1  0  0  0  0
  5  6  1  0  0  0  0
  5  7  1  0  0  0  0
  5 17  1  0  0  0  0
  6 18  1  0  0  0  0
  6 19  1  0  0  0  0
  7  8  2  0  0  0  0
  7  9  1  0  0  0  0
  9 20  1  0  0  0  0
M  END
$$$$
