CHEBI:16318
 OpenBabel04242414113D

 16 16  0  0  0  0  0  0  0  0999 V2000
    1.3652    0.7777   -0.2742 O   0  0  0  0  0  0  0  0  0  0  0  0
    2.3120    0.0232   -0.0079 N   0  3  0  0  0  0  0  0  0  0  0  0
    2.6442   -0.3091    1.1383 O   0  5  0  0  0  0  0  0  0  0  0  0
    3.0905   -0.5125   -1.1310 C   0  0  0  0  0  0  0  0  0  0  0  0
    2.6946   -0.2239   -2.4502 C   0  0  0  0  0  0  0  0  0  0  0  0
    3.4315   -0.7306   -3.5258 C   0  0  0  0  0  0  0  0  0  0  0  0
    4.5501   -1.5154   -3.2691 C   0  0  0  0  0  0  0  0  0  0  0  0
    5.3112   -2.0392   -4.2761 O   0  0  0  0  0  0  0  0  0  0  0  0
    4.9344   -1.7954   -1.9574 C   0  0  0  0  0  0  0  0  0  0  0  0
    6.0361   -2.5671   -1.7228 O   0  0  0  0  0  0  0  0  0  0  0  0
    4.2167   -1.3031   -0.8769 C   0  0  0  0  0  0  0  0  0  0  0  0
    1.8187    0.3904   -2.6518 H   0  0  0  0  0  0  0  0  0  0  0  0
    3.1194   -0.5037   -4.5408 H   0  0  0  0  0  0  0  0  0  0  0  0
    4.9293   -1.7653   -5.1283 H   0  0  0  0  0  0  0  0  0  0  0  0
    6.3770   -2.7976   -2.6106 H   0  0  0  0  0  0  0  0  0  0  0  0
    4.5410   -1.5382    0.1332 H   0  0  0  0  0  0  0  0  0  0  0  0
  1  2  2  0  0  0  0
  2  3  1  0  0  0  0
  2  4  1  0  0  0  0
  4  5  1  0  0  0  0
  4 11  2  0  0  0  0
  5  6  2  0  0  0  0
  5 12  1  0  0  0  0
  6  7  1  0  0  0  0
  6 13  1  0  0  0  0
  7  8  1  0  0  0  0
  7  9  2  0  0  0  0
  8 14  1  0  0  0  0
  9 10  1  0  0  0  0
  9 11  1  0  0  0  0
 10 15  1  0  0  0  0
 11 16  1  0  0  0  0
M  CHG  2   2   1   3  -1
M  END
$$$$
