CHEBI:16751
 OpenBabel04242415093D

 45 46  0  0  1  0  0  0  0  0999 V2000
    8.9490    3.0285    2.4197 O   0  0  0  0  0  0  0  0  0  0  0  0
    8.3234    2.0481    1.5870 C   0  0  0  0  0  0  0  0  0  0  0  0
    7.0235    2.6012    1.0034 C   0  0  1  0  0  0  0  0  0  0  0  0
    6.2302    3.1068    2.1089 O   0  0  0  0  0  0  0  0  0  0  0  0
    5.8537    4.4564    1.7926 C   0  0  0  0  0  0  0  0  0  0  0  0
    4.6199    4.3736    1.0671 O   0  0  0  0  0  0  0  0  0  0  0  0
    5.6540    5.2994    3.0653 C   0  0  0  0  0  0  0  0  0  0  0  0
    4.5376    4.7653    3.8009 O   0  0  0  0  0  0  0  0  0  0  0  0
    4.2648    5.4214    5.0567 C   0  0  2  0  0  0  0  0  0  0  0  0
    3.7583    6.8772    4.8695 C   0  0  0  0  0  0  0  0  0  0  0  0
    4.8283    7.7659    4.5177 O   0  0  0  0  0  0  0  0  0  0  0  0
    5.4199    5.4400    5.9213 O   0  0  0  0  0  0  0  0  0  0  0  0
    4.9943    5.0781    7.2637 C   0  0  2  0  0  0  0  0  0  0  0  0
    5.8142    3.8600    7.6941 C   0  0  0  0  0  0  0  0  0  0  0  0
    7.1949    4.2190    7.7647 O   0  0  0  0  0  0  0  0  0  0  0  0
    3.4880    4.8017    7.2397 C   0  0  1  0  0  0  0  0  0  0  0  0
    2.7536    5.9548    7.6558 O   0  0  0  0  0  0  0  0  0  0  0  0
    3.2235    4.5306    5.7727 C   0  0  2  0  0  0  0  0  0  0  0  0
    3.4849    3.1346    5.5275 O   0  0  0  0  0  0  0  0  0  0  0  0
    6.9570    4.9996    0.8688 C   0  0  1  0  0  0  0  0  0  0  0  0
    8.1156    5.4437    1.5795 O   0  0  0  0  0  0  0  0  0  0  0  0
    7.2489    3.7651    0.0242 C   0  0  2  0  0  0  0  0  0  0  0  0
    6.3107    3.6676   -1.0584 O   0  0  0  0  0  0  0  0  0  0  0  0
    8.4645    2.9881    3.2691 H   0  0  0  0  0  0  0  0  0  0  0  0
    8.1247    1.1672    2.2069 H   0  0  0  0  0  0  0  0  0  0  0  0
    9.0234    1.7627    0.7961 H   0  0  0  0  0  0  0  0  0  0  0  0
    6.4630    1.7889    0.5272 H   0  0  0  0  0  0  0  0  0  0  0  0
    3.9431    4.2971    1.7671 H   0  0  0  0  0  0  0  0  0  0  0  0
    5.4265    6.3229    2.7602 H   0  0  0  0  0  0  0  0  0  0  0  0
    6.5498    5.2674    3.6928 H   0  0  0  0  0  0  0  0  0  0  0  0
    3.0098    6.9267    4.0729 H   0  0  0  0  0  0  0  0  0  0  0  0
    3.3262    7.2906    5.7814 H   0  0  0  0  0  0  0  0  0  0  0  0
    5.5616    7.5581    5.1287 H   0  0  0  0  0  0  0  0  0  0  0  0
    5.2386    5.9324    7.9055 H   0  0  0  0  0  0  0  0  0  0  0  0
    5.7288    3.0346    6.9819 H   0  0  0  0  0  0  0  0  0  0  0  0
    5.5083    3.5107    8.6849 H   0  0  0  0  0  0  0  0  0  0  0  0
    7.4029    4.6512    6.9146 H   0  0  0  0  0  0  0  0  0  0  0  0
    3.1991    3.9700    7.8907 H   0  0  0  0  0  0  0  0  0  0  0  0
    2.8524    6.0367    8.6216 H   0  0  0  0  0  0  0  0  0  0  0  0
    2.2001    4.7422    5.4481 H   0  0  0  0  0  0  0  0  0  0  0  0
    3.8738    3.0976    4.6282 H   0  0  0  0  0  0  0  0  0  0  0  0
    6.5905    5.8344    0.2621 H   0  0  0  0  0  0  0  0  0  0  0  0
    8.6276    4.6572    1.8704 H   0  0  0  0  0  0  0  0  0  0  0  0
    8.2522    3.7619   -0.4119 H   0  0  0  0  0  0  0  0  0  0  0  0
    5.4149    3.7917   -0.6765 H   0  0  0  0  0  0  0  0  0  0  0  0
  1  2  1  0  0  0  0
  1 24  1  0  0  0  0
  2 25  1  0  0  0  0
  2 26  1  0  0  0  0
  3  4  1  0  0  0  0
  3 22  1  0  0  0  0
  3  2  1  0  0  0  0
  3 27  1  6  0  0  0
  4  5  1  0  0  0  0
  5  6  1  0  0  0  0
  5  7  1  0  0  0  0
  5 20  1  0  0  0  0
  6 28  1  0  0  0  0
  7  8  1  0  0  0  0
  7 29  1  0  0  0  0
  7 30  1  0  0  0  0
  9 12  1  0  0  0  0
  9 18  1  0  0  0  0
  9 10  1  0  0  0  0
  9  8  1  6  0  0  0
 10 11  1  0  0  0  0
 10 31  1  0  0  0  0
 10 32  1  0  0  0  0
 11 33  1  0  0  0  0
 12 13  1  0  0  0  0
 13 14  1  0  0  0  0
 13 16  1  0  0  0  0
 13 34  1  1  0  0  0
 14 15  1  0  0  0  0
 14 35  1  0  0  0  0
 14 36  1  0  0  0  0
 15 37  1  0  0  0  0
 16 18  1  0  0  0  0
 16 17  1  0  0  0  0
 16 38  1  1  0  0  0
 17 39  1  0  0  0  0
 18 19  1  0  0  0  0
 18 40  1  6  0  0  0
 19 41  1  0  0  0  0
 20 21  1  0  0  0  0
 20 22  1  0  0  0  0
 20 42  1  6  0  0  0
 21 43  1  0  0  0  0
 22 23  1  0  0  0  0
 22 44  1  6  0  0  0
 23 45  1  0  0  0  0
M  END
$$$$
