CHEBI:17290
 OpenBabel04242416123D

 15 14  0  0  1  0  0  0  0  0999 V2000
    1.0534    1.0828   -0.7875 C   0  0  0  0  0  0  0  0  0  0  0  0
    1.8173    0.3131    0.2806 C   0  0  2  0  0  0  0  0  0  0  0  0
    0.9061   -0.5501    0.9775 O   0  0  0  0  0  0  0  0  0  0  0  0
    2.4439    1.2550    1.3017 C   0  0  0  0  0  0  0  0  0  0  0  0
    3.3323    0.5087    2.2649 C   0  0  0  0  0  0  0  0  0  0  0  0
    4.4636    0.8662    2.5581 O   0  0  0  0  0  0  0  0  0  0  0  0
    2.7372   -0.5647    2.8333 O   0  0  0  0  0  0  0  0  0  0  0  0
    1.7133    1.7599   -1.3382 H   0  0  0  0  0  0  0  0  0  0  0  0
    0.2397    1.6667   -0.3434 H   0  0  0  0  0  0  0  0  0  0  0  0
    0.5913    0.3922   -1.5012 H   0  0  0  0  0  0  0  0  0  0  0  0
    2.5825   -0.3188   -0.1841 H   0  0  0  0  0  0  0  0  0  0  0  0
    0.4310   -1.0721    0.3011 H   0  0  0  0  0  0  0  0  0  0  0  0
    1.6820    1.7756    1.8929 H   0  0  0  0  0  0  0  0  0  0  0  0
    3.0587    2.0058    0.7924 H   0  0  0  0  0  0  0  0  0  0  0  0
    1.8396   -0.7196    2.4482 H   0  0  0  0  0  0  0  0  0  0  0  0
  1  8  1  0  0  0  0
  1  9  1  0  0  0  0
  1 10  1  0  0  0  0
  2  4  1  0  0  0  0
  2  3  1  0  0  0  0
  2  1  1  0  0  0  0
  2 11  1  6  0  0  0
  3 12  1  0  0  0  0
  4  5  1  0  0  0  0
  4 13  1  0  0  0  0
  4 14  1  0  0  0  0
  5  6  2  0  0  0  0
  5  7  1  0  0  0  0
  7 15  1  0  0  0  0
M  END
$$$$
