CHEBI:17031
 OpenBabel04242415433D

 43 48  0  0  0  0  0  0  0  0999 V2000
    2.3620    1.0590    0.0750 C   0  0  0  0  0  0  0  0  0  0  0  0
    2.1938   -0.3233   -0.2591 O   0  0  0  0  0  0  0  0  0  0  0  0
    3.0918   -0.7081   -1.2261 C   0  0  0  0  0  0  0  0  0  0  0  0
    2.7895   -0.3129   -2.5387 C   0  0  0  0  0  0  0  0  0  0  0  0
    3.6771   -0.6516   -3.5219 C   0  0  0  0  0  0  0  0  0  0  0  0
    4.8129   -1.3607   -3.2348 C   0  0  0  0  0  0  0  0  0  0  0  0
    5.1216   -1.7886   -1.9441 C   0  0  0  0  0  0  0  0  0  0  0  0
    6.2652   -2.5330   -1.7243 C   0  0  0  0  0  0  0  0  0  0  0  0
    6.6170   -2.9856   -0.5023 N   0  3  0  0  0  0  0  0  0  0  0  0
    7.6717   -4.0277   -0.5067 C   0  0  0  0  0  0  0  0  0  0  0  0
    5.9147   -2.6352    0.6270 C   0  0  0  0  0  0  0  0  0  0  0  0
    6.3959   -2.8842    1.9748 C   0  0  0  0  0  0  0  0  0  0  0  0
    7.7426   -3.1712    2.3454 C   0  0  0  0  0  0  0  0  0  0  0  0
    8.0719   -3.4281    3.6629 C   0  0  0  0  0  0  0  0  0  0  0  0
    7.1410   -3.3883    4.6572 C   0  0  0  0  0  0  0  0  0  0  0  0
    5.8370   -3.0572    4.3880 C   0  0  0  0  0  0  0  0  0  0  0  0
    5.4736   -2.7738    3.0580 C   0  0  0  0  0  0  0  0  0  0  0  0
    4.1776   -2.3444    2.8173 C   0  0  0  0  0  0  0  0  0  0  0  0
    3.7887   -1.9345    1.5450 C   0  0  0  0  0  0  0  0  0  0  0  0
    4.6357   -2.0083    0.4239 C   0  0  0  0  0  0  0  0  0  0  0  0
    4.2523   -1.5028   -0.8785 C   0  0  0  0  0  0  0  0  0  0  0  0
    7.6669   -3.6581    5.8778 O   0  0  0  0  0  0  0  0  0  0  0  0
    9.0558   -3.8601    5.5399 C   0  0  0  0  0  0  0  0  0  0  0  0
    9.3164   -3.7203    4.1232 O   0  0  0  0  0  0  0  0  0  0  0  0
    5.5610   -1.5921   -4.3536 O   0  0  0  0  0  0  0  0  0  0  0  0
    4.7580   -0.9447   -5.3705 C   0  0  0  0  0  0  0  0  0  0  0  0
    3.5623   -0.3459   -4.8384 O   0  0  0  0  0  0  0  0  0  0  0  0
    1.6780    1.2881    0.8975 H   0  0  0  0  0  0  0  0  0  0  0  0
    2.1088    1.7097   -0.7681 H   0  0  0  0  0  0  0  0  0  0  0  0
    3.3839    1.2567    0.4175 H   0  0  0  0  0  0  0  0  0  0  0  0
    1.8882    0.2455   -2.7700 H   0  0  0  0  0  0  0  0  0  0  0  0
    6.9162   -2.8110   -2.5520 H   0  0  0  0  0  0  0  0  0  0  0  0
    7.6191   -4.5840   -1.4489 H   0  0  0  0  0  0  0  0  0  0  0  0
    7.4935   -4.7483    0.2930 H   0  0  0  0  0  0  0  0  0  0  0  0
    8.6407   -3.5298   -0.4367 H   0  0  0  0  0  0  0  0  0  0  0  0
    8.5693   -3.1420    1.6487 H   0  0  0  0  0  0  0  0  0  0  0  0
    5.1254   -2.9905    5.2068 H   0  0  0  0  0  0  0  0  0  0  0  0
    3.4542   -2.2634    3.6297 H   0  0  0  0  0  0  0  0  0  0  0  0
    2.7637   -1.5795    1.4636 H   0  0  0  0  0  0  0  0  0  0  0  0
    9.3529   -4.8671    5.8538 H   0  0  0  0  0  0  0  0  0  0  0  0
    9.6613   -3.1247    6.0821 H   0  0  0  0  0  0  0  0  0  0  0  0
    4.4773   -1.6911   -6.1222 H   0  0  0  0  0  0  0  0  0  0  0  0
    5.3621   -0.1661   -5.8499 H   0  0  0  0  0  0  0  0  0  0  0  0
  1  2  1  0  0  0  0
  1 28  1  0  0  0  0
  1 29  1  0  0  0  0
  1 30  1  0  0  0  0
  2  3  1  0  0  0  0
  3  4  1  0  0  0  0
  3 21  2  0  0  0  0
  4  5  2  0  0  0  0
  4 31  1  0  0  0  0
  5  6  1  0  0  0  0
  5 27  1  0  0  0  0
  6  7  2  0  0  0  0
  6 25  1  0  0  0  0
  7  8  1  0  0  0  0
  7 21  1  0  0  0  0
  8  9  2  0  0  0  0
  8 32  1  0  0  0  0
  9 10  1  0  0  0  0
  9 11  1  0  0  0  0
 10 33  1  0  0  0  0
 10 34  1  0  0  0  0
 10 35  1  0  0  0  0
 11 12  1  0  0  0  0
 11 20  2  0  0  0  0
 12 13  1  0  0  0  0
 12 17  2  0  0  0  0
 13 14  2  0  0  0  0
 13 36  1  0  0  0  0
 14 15  1  0  0  0  0
 14 24  1  0  0  0  0
 15 16  2  0  0  0  0
 15 22  1  0  0  0  0
 16 17  1  0  0  0  0
 16 37  1  0  0  0  0
 17 18  1  0  0  0  0
 18 19  2  0  0  0  0
 18 38  1  0  0  0  0
 19 20  1  0  0  0  0
 19 39  1  0  0  0  0
 20 21  1  0  0  0  0
 22 23  1  0  0  0  0
 23 24  1  0  0  0  0
 23 40  1  0  0  0  0
 23 41  1  0  0  0  0
 25 26  1  0  0  0  0
 26 27  1  0  0  0  0
 26 42  1  0  0  0  0
 26 43  1  0  0  0  0
M  CHG  1   9   1
M  END
$$$$
