CHEBI:16405
 OpenBabel04242414203D

 41 42  0  0  1  0  0  0  0  0999 V2000
    4.3394   -2.9743    0.5484 O   0  0  0  0  0  0  0  0  0  0  0  0
    3.3668   -2.1090    1.1572 C   0  0  2  0  0  0  0  0  0  0  0  0
    3.0158   -2.6033    2.5562 C   0  0  1  0  0  0  0  0  0  0  0  0
    4.1837   -2.5393    3.3880 O   0  0  0  0  0  0  0  0  0  0  0  0
    1.8729   -1.7483    3.1217 C   0  0  2  0  0  0  0  0  0  0  0  0
    1.5083   -2.2867    4.3848 O   0  0  0  0  0  0  0  0  0  0  0  0
    0.7400   -1.8008    2.2730 O   0  0  0  0  0  0  0  0  0  0  0  0
    1.0120   -1.2495    0.9679 C   0  0  2  0  0  0  0  0  0  0  0  0
   -0.2866   -1.2743    0.1494 C   0  0  0  0  0  0  0  0  0  0  0  0
   -1.2179   -0.3433    0.7182 O   0  0  0  0  0  0  0  0  0  0  0  0
   -2.4852   -0.3835    0.0520 C   0  0  2  0  0  0  0  0  0  0  0  0
   -2.3251    0.0965   -1.2860 O   0  0  0  0  0  0  0  0  0  0  0  0
   -3.5453    0.1065   -2.0201 C   0  0  0  0  0  0  0  0  0  0  0  0
   -4.5369    1.0783   -1.3924 C   0  0  1  0  0  0  0  0  0  0  0  0
   -5.7705    1.0688   -2.1096 O   0  0  0  0  0  0  0  0  0  0  0  0
   -4.7802    0.6826    0.0637 C   0  0  2  0  0  0  0  0  0  0  0  0
   -5.6097    1.6712    0.7051 O   0  0  0  0  0  0  0  0  0  0  0  0
   -3.4708    0.5106    0.8389 C   0  0  1  0  0  0  0  0  0  0  0  0
   -3.7809   -0.0459    2.1277 O   0  0  0  0  0  0  0  0  0  0  0  0
    2.1175   -2.0611    0.2726 C   0  0  1  0  0  0  0  0  0  0  0  0
    2.4681   -1.4904   -0.9901 O   0  0  0  0  0  0  0  0  0  0  0  0
    5.0225   -3.1117    1.2363 H   0  0  0  0  0  0  0  0  0  0  0  0
    3.8405   -1.1204    1.2037 H   0  0  0  0  0  0  0  0  0  0  0  0
    2.7225   -3.6599    2.5152 H   0  0  0  0  0  0  0  0  0  0  0  0
    3.8599   -2.7448    4.2890 H   0  0  0  0  0  0  0  0  0  0  0  0
    2.1903   -0.7114    3.2857 H   0  0  0  0  0  0  0  0  0  0  0  0
    0.7128   -1.7820    4.6322 H   0  0  0  0  0  0  0  0  0  0  0  0
    1.3182   -0.2018    1.0909 H   0  0  0  0  0  0  0  0  0  0  0  0
   -0.7256   -2.2785    0.1779 H   0  0  0  0  0  0  0  0  0  0  0  0
   -0.0892   -0.9898   -0.8893 H   0  0  0  0  0  0  0  0  0  0  0  0
   -2.8467   -1.4205    0.0433 H   0  0  0  0  0  0  0  0  0  0  0  0
   -3.9565   -0.9088   -2.0828 H   0  0  0  0  0  0  0  0  0  0  0  0
   -3.3236    0.4133   -3.0480 H   0  0  0  0  0  0  0  0  0  0  0  0
   -4.1409    2.1000   -1.4337 H   0  0  0  0  0  0  0  0  0  0  0  0
   -6.4347    1.4867   -1.5273 H   0  0  0  0  0  0  0  0  0  0  0  0
   -5.3634   -0.2459    0.1050 H   0  0  0  0  0  0  0  0  0  0  0  0
   -5.1235    2.5164    0.7108 H   0  0  0  0  0  0  0  0  0  0  0  0
   -3.0143    1.4901    1.0275 H   0  0  0  0  0  0  0  0  0  0  0  0
   -4.5413    0.4596    2.4721 H   0  0  0  0  0  0  0  0  0  0  0  0
    1.7720   -3.0847    0.0801 H   0  0  0  0  0  0  0  0  0  0  0  0
    3.2830   -1.9584   -1.2657 H   0  0  0  0  0  0  0  0  0  0  0  0
  1  2  1  0  0  0  0
  1 22  1  0  0  0  0
  2  3  1  0  0  0  0
  2 20  1  0  0  0  0
  2 23  1  1  0  0  0
  3  4  1  0  0  0  0
  3  5  1  0  0  0  0
  3 24  1  6  0  0  0
  4 25  1  0  0  0  0
  5  6  1  0  0  0  0
  5  7  1  0  0  0  0
  5 26  1  1  0  0  0
  6 27  1  0  0  0  0
  7  8  1  0  0  0  0
  8  9  1  0  0  0  0
  8 20  1  0  0  0  0
  8 28  1  1  0  0  0
  9 10  1  0  0  0  0
  9 29  1  0  0  0  0
  9 30  1  0  0  0  0
 10 11  1  0  0  0  0
 11 12  1  0  0  0  0
 11 18  1  0  0  0  0
 11 31  1  6  0  0  0
 12 13  1  0  0  0  0
 13 14  1  0  0  0  0
 13 32  1  0  0  0  0
 13 33  1  0  0  0  0
 14 15  1  0  0  0  0
 14 16  1  0  0  0  0
 14 34  1  6  0  0  0
 15 35  1  0  0  0  0
 16 17  1  0  0  0  0
 16 18  1  0  0  0  0
 16 36  1  1  0  0  0
 17 37  1  0  0  0  0
 18 19  1  0  0  0  0
 18 38  1  1  0  0  0
 19 39  1  0  0  0  0
 20 21  1  0  0  0  0
 20 40  1  6  0  0  0
 21 41  1  0  0  0  0
M  END
$$$$
