CHEBI:15702
 OpenBabel04242413073D

 18 18  0  0  0  0  0  0  0  0999 V2000
    3.8687   -3.0034    0.4227 O   0  0  0  0  0  0  0  0  0  0  0  0
    4.0638   -1.8012    0.4034 C   0  0  0  0  0  0  0  0  0  0  0  0
    4.4225   -1.1154   -0.7007 O   0  0  0  0  0  0  0  0  0  0  0  0
    3.8724   -0.9398    1.5926 C   0  0  0  0  0  0  0  0  0  0  0  0
    4.7512    0.1114    1.8834 C   0  0  0  0  0  0  0  0  0  0  0  0
    4.5406    0.8938    3.0220 C   0  0  0  0  0  0  0  0  0  0  0  0
    3.4686    0.6131    3.8794 C   0  0  0  0  0  0  0  0  0  0  0  0
    3.2773    1.4754    5.0682 C   0  0  0  0  0  0  0  0  0  0  0  0
    3.4785    2.6764    5.0497 O   0  0  0  0  0  0  0  0  0  0  0  0
    2.9105    0.7918    6.1711 O   0  0  0  0  0  0  0  0  0  0  0  0
    2.5899   -0.4381    3.5884 C   0  0  0  0  0  0  0  0  0  0  0  0
    2.8006   -1.2207    2.4500 C   0  0  0  0  0  0  0  0  0  0  0  0
    4.3705   -0.1445   -0.6209 H   0  0  0  0  0  0  0  0  0  0  0  0
    5.6129    0.3152    1.2517 H   0  0  0  0  0  0  0  0  0  0  0  0
    5.2170    1.7175    3.2481 H   0  0  0  0  0  0  0  0  0  0  0  0
    2.9583   -0.1793    6.0924 H   0  0  0  0  0  0  0  0  0  0  0  0
    1.7277   -0.6418    4.2195 H   0  0  0  0  0  0  0  0  0  0  0  0
    2.1242   -2.0445    2.2237 H   0  0  0  0  0  0  0  0  0  0  0  0
  1  2  2  0  0  0  0
  2  3  1  0  0  0  0
  2  4  1  0  0  0  0
  3 13  1  0  0  0  0
  4  5  1  0  0  0  0
  4 12  2  0  0  0  0
  5  6  2  0  0  0  0
  5 14  1  0  0  0  0
  6  7  1  0  0  0  0
  6 15  1  0  0  0  0
  7  8  1  0  0  0  0
  7 11  2  0  0  0  0
  8  9  2  0  0  0  0
  8 10  1  0  0  0  0
 10 16  1  0  0  0  0
 11 12  1  0  0  0  0
 11 17  1  0  0  0  0
 12 18  1  0  0  0  0
M  END
$$$$
