CHEBI:17685
 OpenBabel04242417063D

 49 52  0  0  1  0  0  0  0  0999 V2000
    2.1585    0.1517   -5.1299 C   0  0  0  0  0  0  0  0  0  0  0  0
    1.5719   -0.1095   -3.9531 C   0  0  0  0  0  0  0  0  0  0  0  0
    1.7250    0.6367   -2.6463 C   0  0  1  0  0  0  0  0  0  0  0  0
    0.5018    1.3802   -2.5410 O   0  0  0  0  0  0  0  0  0  0  0  0
    1.8339   -0.3617   -1.4375 C   0  0  0  0  0  0  0  0  0  0  0  0
    3.0464   -0.1126   -0.5967 N   0  0  1  0  0  0  0  0  0  0  0  0
    2.9357    1.2663   -0.0649 C   0  0  0  0  0  0  0  0  0  0  0  0
    2.8814    2.3273   -1.1712 C   0  0  0  0  0  0  0  0  0  0  0  0
    2.9262    1.6271   -2.5438 C   0  0  1  0  0  0  0  0  0  0  0  0
    4.2720    0.8695   -2.5535 C   0  0  0  0  0  0  0  0  0  0  0  0
    4.2363   -0.2699   -1.5074 C   0  0  1  0  0  0  0  0  0  0  0  0
    5.5843   -0.4932   -0.7456 C   0  0  2  0  0  0  0  0  0  0  0  0
    6.0019    0.6931   -0.0601 O   0  0  0  0  0  0  0  0  0  0  0  0
    6.7140   -0.9761   -1.6495 C   0  0  0  0  0  0  0  0  0  0  0  0
    7.6565   -0.0494   -2.1186 C   0  0  0  0  0  0  0  0  0  0  0  0
    8.6971   -0.4886   -2.9092 C   0  0  0  0  0  0  0  0  0  0  0  0
    8.8681   -1.7728   -3.2704 N   0  0  0  0  0  0  0  0  0  0  0  0
    7.9738   -2.6740   -2.8399 C   0  0  0  0  0  0  0  0  0  0  0  0
    8.1701   -3.9930   -3.2150 C   0  0  0  0  0  0  0  0  0  0  0  0
    7.2921   -5.0059   -2.8288 C   0  0  0  0  0  0  0  0  0  0  0  0
    6.1812   -4.7082   -2.0509 C   0  0  0  0  0  0  0  0  0  0  0  0
    5.3911   -5.7814   -1.7500 O   0  0  0  0  0  0  0  0  0  0  0  0
    4.1807   -5.5218   -1.0510 C   0  0  0  0  0  0  0  0  0  0  0  0
    5.9723   -3.3875   -1.6486 C   0  0  0  0  0  0  0  0  0  0  0  0
    6.8597   -2.3429   -2.0297 C   0  0  0  0  0  0  0  0  0  0  0  0
    1.9335   -0.4543   -6.0027 H   0  0  0  0  0  0  0  0  0  0  0  0
    2.8414    0.9818   -5.2717 H   0  0  0  0  0  0  0  0  0  0  0  0
    0.8571   -0.9318   -3.9304 H   0  0  0  0  0  0  0  0  0  0  0  0
    0.3815    1.6502   -1.6169 H   0  0  0  0  0  0  0  0  0  0  0  0
    1.8632   -1.4047   -1.7797 H   0  0  0  0  0  0  0  0  0  0  0  0
    0.9434   -0.2981   -0.7980 H   0  0  0  0  0  0  0  0  0  0  0  0
    3.7491    1.4899    0.6295 H   0  0  0  0  0  0  0  0  0  0  0  0
    2.0297    1.3393    0.5512 H   0  0  0  0  0  0  0  0  0  0  0  0
    3.7347    3.0101   -1.0719 H   0  0  0  0  0  0  0  0  0  0  0  0
    1.9816    2.9437   -1.0694 H   0  0  0  0  0  0  0  0  0  0  0  0
    2.8916    2.3897   -3.3299 H   0  0  0  0  0  0  0  0  0  0  0  0
    5.0822    1.5786   -2.3471 H   0  0  0  0  0  0  0  0  0  0  0  0
    4.4765    0.4490   -3.5437 H   0  0  0  0  0  0  0  0  0  0  0  0
    4.0682   -1.2024   -2.0647 H   0  0  0  0  0  0  0  0  0  0  0  0
    5.4386   -1.2484    0.0369 H   0  0  0  0  0  0  0  0  0  0  0  0
    5.5988    0.6409    0.8232 H   0  0  0  0  0  0  0  0  0  0  0  0
    7.5919    1.0033   -1.8597 H   0  0  0  0  0  0  0  0  0  0  0  0
    9.4487    0.2022   -3.2799 H   0  0  0  0  0  0  0  0  0  0  0  0
    9.0335   -4.2428   -3.8273 H   0  0  0  0  0  0  0  0  0  0  0  0
    7.4794   -6.0294   -3.1438 H   0  0  0  0  0  0  0  0  0  0  0  0
    3.6475   -6.4712   -0.9429 H   0  0  0  0  0  0  0  0  0  0  0  0
    3.5357   -4.8399   -1.6152 H   0  0  0  0  0  0  0  0  0  0  0  0
    4.3826   -5.1362   -0.0465 H   0  0  0  0  0  0  0  0  0  0  0  0
    5.1133   -3.1526   -1.0309 H   0  0  0  0  0  0  0  0  0  0  0  0
  1  2  2  0  0  0  0
  1 26  1  0  0  0  0
  1 27  1  0  0  0  0
  2 28  1  0  0  0  0
  3  5  1  0  0  0  0
  3  9  1  0  0  0  0
  3  4  1  1  0  0  0
  3  2  1  0  0  0  0
  4 29  1  0  0  0  0
  5 30  1  0  0  0  0
  5 31  1  0  0  0  0
  6  5  1  1  0  0  0
  6  7  1  0  0  0  0
  6 11  1  0  0  0  0
  7  8  1  0  0  0  0
  7 32  1  0  0  0  0
  7 33  1  0  0  0  0
  8  9  1  0  0  0  0
  8 34  1  0  0  0  0
  8 35  1  0  0  0  0
  9 10  1  0  0  0  0
  9 36  1  6  0  0  0
 10 11  1  0  0  0  0
 10 37  1  0  0  0  0
 10 38  1  0  0  0  0
 11 12  1  0  0  0  0
 11 39  1  6  0  0  0
 12 13  1  0  0  0  0
 12 14  1  0  0  0  0
 12 40  1  1  0  0  0
 13 41  1  0  0  0  0
 14 15  1  0  0  0  0
 14 25  2  0  0  0  0
 15 16  2  0  0  0  0
 15 42  1  0  0  0  0
 16 17  1  0  0  0  0
 16 43  1  0  0  0  0
 17 18  2  0  0  0  0
 18 19  1  0  0  0  0
 18 25  1  0  0  0  0
 19 20  2  0  0  0  0
 19 44  1  0  0  0  0
 20 21  1  0  0  0  0
 20 45  1  0  0  0  0
 21 22  1  0  0  0  0
 21 24  2  0  0  0  0
 22 23  1  0  0  0  0
 23 46  1  0  0  0  0
 23 47  1  0  0  0  0
 23 48  1  0  0  0  0
 24 25  1  0  0  0  0
 24 49  1  0  0  0  0
M  END
$$$$
