CHEBI:17902
 OpenBabel04242423153D

 22 21  0  0  0  0  0  0  0  0999 V2000
    2.3323   -2.1575   -2.1032 N   0  0  0  0  0  0  0  0  0  0  0  0
    1.7417   -0.8209   -2.0527 C   0  0  0  0  0  0  0  0  0  0  0  0
    2.5419    0.1407   -1.1701 C   0  0  0  0  0  0  0  0  0  0  0  0
    4.0495    0.2329   -1.4429 C   0  0  0  0  0  0  0  0  0  0  0  0
    4.4279    0.7099   -2.8421 C   0  0  0  0  0  0  0  0  0  0  0  0
    4.1420   -0.2714   -3.8608 N   0  0  0  0  0  0  0  0  0  0  0  0
    4.4312   -0.0423   -5.1688 C   0  0  0  0  0  0  0  0  0  0  0  0
    4.1349   -1.1052   -5.9567 N   0  0  0  0  0  0  0  0  0  0  0  0
    4.8964    0.9899   -5.6271 O   0  0  0  0  0  0  0  0  0  0  0  0
    1.6738   -2.7909   -2.5583 H   0  0  0  0  0  0  0  0  0  0  0  0
    2.4350   -2.5120   -1.1509 H   0  0  0  0  0  0  0  0  0  0  0  0
    0.7237   -0.8977   -1.6535 H   0  0  0  0  0  0  0  0  0  0  0  0
    1.6469   -0.4244   -3.0685 H   0  0  0  0  0  0  0  0  0  0  0  0
    2.4100   -0.1565   -0.1212 H   0  0  0  0  0  0  0  0  0  0  0  0
    2.1016    1.1417   -1.2610 H   0  0  0  0  0  0  0  0  0  0  0  0
    4.5249   -0.7339   -1.2370 H   0  0  0  0  0  0  0  0  0  0  0  0
    4.4720    0.9413   -0.7191 H   0  0  0  0  0  0  0  0  0  0  0  0
    5.5046    0.9139   -2.8793 H   0  0  0  0  0  0  0  0  0  0  0  0
    3.9093    1.6407   -3.0980 H   0  0  0  0  0  0  0  0  0  0  0  0
    4.0085   -1.2340   -3.5694 H   0  0  0  0  0  0  0  0  0  0  0  0
    3.3329   -1.6556   -5.6893 H   0  0  0  0  0  0  0  0  0  0  0  0
    4.2179   -0.9071   -6.9452 H   0  0  0  0  0  0  0  0  0  0  0  0
  1  2  1  0  0  0  0
  1 10  1  0  0  0  0
  1 11  1  0  0  0  0
  2  3  1  0  0  0  0
  2 12  1  0  0  0  0
  2 13  1  0  0  0  0
  3  4  1  0  0  0  0
  3 14  1  0  0  0  0
  3 15  1  0  0  0  0
  4  5  1  0  0  0  0
  4 16  1  0  0  0  0
  4 17  1  0  0  0  0
  5  6  1  0  0  0  0
  5 18  1  0  0  0  0
  5 19  1  0  0  0  0
  6  7  1  0  0  0  0
  6 20  1  0  0  0  0
  7  8  1  0  0  0  0
  7  9  2  0  0  0  0
  8 21  1  0  0  0  0
  8 22  1  0  0  0  0
M  END
$$$$
