CHEBI:27390
 OpenBabel04252409453D

 12 11  0  0  0  0  0  0  0  0999 V2000
    0.8685    0.4836   -0.6401 N   0  0  0  0  0  0  0  0  0  0  0  0
    2.1455    0.1560   -0.0070 C   0  0  0  0  0  0  0  0  0  0  0  0
    1.9142   -0.5592    1.3161 C   0  0  0  0  0  0  0  0  0  0  0  0
    3.2124   -0.9140    1.9940 C   0  0  0  0  0  0  0  0  0  0  0  0
    4.3218   -0.5652    1.6034 O   0  0  0  0  0  0  0  0  0  0  0  0
    1.0515    0.9262   -1.5414 H   0  0  0  0  0  0  0  0  0  0  0  0
    0.3792    1.1837   -0.0831 H   0  0  0  0  0  0  0  0  0  0  0  0
    2.7220    1.0756    0.1444 H   0  0  0  0  0  0  0  0  0  0  0  0
    2.7246   -0.4830   -0.6832 H   0  0  0  0  0  0  0  0  0  0  0  0
    1.3602   -1.4913    1.1578 H   0  0  0  0  0  0  0  0  0  0  0  0
    1.3399    0.0673    2.0075 H   0  0  0  0  0  0  0  0  0  0  0  0
    3.1078   -1.5111    2.9162 H   0  0  0  0  0  0  0  0  0  0  0  0
  1  2  1  0  0  0  0
  1  6  1  0  0  0  0
  1  7  1  0  0  0  0
  2  3  1  0  0  0  0
  2  8  1  0  0  0  0
  2  9  1  0  0  0  0
  3  4  1  0  0  0  0
  3 10  1  0  0  0  0
  3 11  1  0  0  0  0
  4  5  2  0  0  0  0
  4 12  1  0  0  0  0
M  END
$$$$
