CHEBI:17983
 OpenBabel04242423223D

 56 58  0  0  1  0  0  0  0  0999 V2000
    7.0027   -2.4864    3.6923 O   0  0  0  0  0  0  0  0  0  0  0  0
    6.7680   -1.3012    3.4870 C   0  0  0  0  0  0  0  0  0  0  0  0
    7.2127   -0.6389    2.2514 C   0  0  0  0  0  0  0  0  0  0  0  0
    6.9153    0.6495    2.0669 C   0  0  0  0  0  0  0  0  0  0  0  0
    6.2205    1.3805    3.0107 N   0  0  0  0  0  0  0  0  0  0  0  0
    5.9264    2.7988    2.8111 C   0  0  2  0  0  0  0  0  0  0  0  0
    5.7956    3.1095    1.4140 O   0  0  0  0  0  0  0  0  0  0  0  0
    6.2933    4.4571    1.2119 C   0  0  2  0  0  0  0  0  0  0  0  0
    7.3742    4.4203    0.1321 C   0  0  0  0  0  0  0  0  0  0  0  0
    8.4568    3.5941    0.5302 O   0  0  0  0  0  0  0  0  0  0  0  0
    9.6914    3.4411   -0.4918 P   0  0  0  0  0  0  0  0  0  0  0  0
   10.6438    4.5859   -0.5046 O   0  0  0  0  0  0  0  0  0  0  0  0
   10.3318    2.0576   -0.0018 O   0  0  0  0  0  0  0  0  0  0  0  0
    9.0113    3.0759   -1.8783 O   0  0  0  0  0  0  0  0  0  0  0  0
    9.8366    2.5139   -3.1097 P   0  0  0  0  0  0  0  0  0  0  0  0
   11.0098    1.6615   -2.7531 O   0  0  0  0  0  0  0  0  0  0  0  0
    8.6992    1.7208   -3.9176 O   0  0  0  0  0  0  0  0  0  0  0  0
   10.1210    3.7669   -4.0703 O   0  0  0  0  0  0  0  0  0  0  0  0
   10.7986    3.4474   -5.2771 C   0  0  0  0  0  0  0  0  0  0  0  0
    9.9035    2.7713   -6.1790 O   0  0  0  0  0  0  0  0  0  0  0  0
    8.7989    3.6073   -6.5742 C   0  0  0  0  0  0  0  0  0  0  0  0
    9.2978    4.8376   -7.3290 C   0  0  2  0  0  0  0  0  0  0  0  0
    9.9440    4.4453   -8.5546 O   0  0  0  0  0  0  0  0  0  0  0  0
   10.3146    5.6121   -6.4845 C   0  0  2  0  0  0  0  0  0  0  0  0
   10.9278    6.6418   -7.2793 O   0  0  0  0  0  0  0  0  0  0  0  0
   11.4131    4.6799   -5.9664 C   0  0  1  0  0  0  0  0  0  0  0  0
   12.2987    5.3937   -5.1009 O   0  0  0  0  0  0  0  0  0  0  0  0
    6.7875    4.9757    2.5622 C   0  0  1  0  0  0  0  0  0  0  0  0
    5.7447    5.7465    3.1843 O   0  0  0  0  0  0  0  0  0  0  0  0
    7.0189    3.7152    3.3749 C   0  0  1  0  0  0  0  0  0  0  0  0
    6.8998    3.9990    4.7726 O   0  0  0  0  0  0  0  0  0  0  0  0
    5.8803    0.8331    4.2392 C   0  0  0  0  0  0  0  0  0  0  0  0
    5.4390    1.4989    5.1749 O   0  0  0  0  0  0  0  0  0  0  0  0
    6.1062   -0.5095    4.3792 N   0  0  0  0  0  0  0  0  0  0  0  0
    7.7662   -1.2283    1.5332 H   0  0  0  0  0  0  0  0  0  0  0  0
    7.2270    1.1644    1.1625 H   0  0  0  0  0  0  0  0  0  0  0  0
    4.9620    3.0195    3.2877 H   0  0  0  0  0  0  0  0  0  0  0  0
    5.4512    5.0557    0.8457 H   0  0  0  0  0  0  0  0  0  0  0  0
    7.7446    5.4282   -0.0795 H   0  0  0  0  0  0  0  0  0  0  0  0
    6.9418    4.0007   -0.7826 H   0  0  0  0  0  0  0  0  0  0  0  0
   11.1549    1.8379   -0.4868 H   0  0  0  0  0  0  0  0  0  0  0  0
    9.0627    1.2742   -4.7066 H   0  0  0  0  0  0  0  0  0  0  0  0
   11.6173    2.7575   -5.0432 H   0  0  0  0  0  0  0  0  0  0  0  0
    8.2078    3.8883   -5.6957 H   0  0  0  0  0  0  0  0  0  0  0  0
    8.1655    2.9967   -7.2254 H   0  0  0  0  0  0  0  0  0  0  0  0
    8.4647    5.4887   -7.6122 H   0  0  0  0  0  0  0  0  0  0  0  0
   10.1642    3.4960   -8.4900 H   0  0  0  0  0  0  0  0  0  0  0  0
    9.8209    6.1124   -5.6441 H   0  0  0  0  0  0  0  0  0  0  0  0
   10.9314    6.3005   -8.1989 H   0  0  0  0  0  0  0  0  0  0  0  0
   12.0184    4.3426   -6.8179 H   0  0  0  0  0  0  0  0  0  0  0  0
   12.4656    6.2508   -5.5435 H   0  0  0  0  0  0  0  0  0  0  0  0
    7.6663    5.6234    2.4991 H   0  0  0  0  0  0  0  0  0  0  0  0
    5.9319    5.6939    4.1460 H   0  0  0  0  0  0  0  0  0  0  0  0
    8.0173    3.3081    3.1803 H   0  0  0  0  0  0  0  0  0  0  0  0
    6.5807    3.1827    5.2137 H   0  0  0  0  0  0  0  0  0  0  0  0
    5.8407   -0.9318    5.2551 H   0  0  0  0  0  0  0  0  0  0  0  0
  1  2  2  0  0  0  0
  2  3  1  0  0  0  0
  2 34  1  0  0  0  0
  3  4  2  0  0  0  0
  3 35  1  0  0  0  0
  4  5  1  0  0  0  0
  4 36  1  0  0  0  0
  5  6  1  0  0  0  0
  5 32  1  0  0  0  0
  6  7  1  0  0  0  0
  6 30  1  0  0  0  0
  6 37  1  1  0  0  0
  7  8  1  0  0  0  0
  8  9  1  0  0  0  0
  8 28  1  0  0  0  0
  8 38  1  6  0  0  0
  9 10  1  0  0  0  0
  9 39  1  0  0  0  0
  9 40  1  0  0  0  0
 10 11  1  0  0  0  0
 11 12  2  0  0  0  0
 11 13  1  0  0  0  0
 11 14  1  0  0  0  0
 13 41  1  0  0  0  0
 14 15  1  0  0  0  0
 15 16  2  0  0  0  0
 15 17  1  0  0  0  0
 15 18  1  0  0  0  0
 17 42  1  0  0  0  0
 18 19  1  0  0  0  0
 19 20  1  0  0  0  0
 19 26  1  0  0  0  0
 19 43  1  0  0  0  0
 20 21  1  0  0  0  0
 21 22  1  0  0  0  0
 21 44  1  0  0  0  0
 21 45  1  0  0  0  0
 22 23  1  0  0  0  0
 22 24  1  0  0  0  0
 22 46  1  6  0  0  0
 23 47  1  0  0  0  0
 24 25  1  0  0  0  0
 24 26  1  0  0  0  0
 24 48  1  1  0  0  0
 25 49  1  0  0  0  0
 26 27  1  0  0  0  0
 26 50  1  6  0  0  0
 27 51  1  0  0  0  0
 28 29  1  0  0  0  0
 28 30  1  0  0  0  0
 28 52  1  6  0  0  0
 29 53  1  0  0  0  0
 30 31  1  0  0  0  0
 30 54  1  6  0  0  0
 31 55  1  0  0  0  0
 32 33  2  0  0  0  0
 32 34  1  0  0  0  0
 34 56  1  0  0  0  0
M  END
$$$$
