CHEBI:18417
 OpenBabel04252409363D

 40 42  0  0  0  0  0  0  0  0999 V2000
    2.2548   -0.5614    1.3915 C   0  0  0  0  0  0  0  0  0  0  0  0
    1.9851   -0.4645    0.0010 O   0  0  0  0  0  0  0  0  0  0  0  0
    2.7711   -1.1809   -0.8604 C   0  0  0  0  0  0  0  0  0  0  0  0
    2.4415   -0.9664   -2.2058 C   0  0  0  0  0  0  0  0  0  0  0  0
    3.1433   -1.5948   -3.2463 C   0  0  0  0  0  0  0  0  0  0  0  0
    4.2054   -2.4574   -2.9393 C   0  0  0  0  0  0  0  0  0  0  0  0
    4.5116   -2.7037   -1.5912 C   0  0  0  0  0  0  0  0  0  0  0  0
    3.8110   -2.0641   -0.5620 C   0  0  0  0  0  0  0  0  0  0  0  0
    4.1827   -2.3295    0.7272 O   0  0  0  0  0  0  0  0  0  0  0  0
    5.0410   -3.0888   -4.0433 C   0  0  0  0  0  0  0  0  0  0  0  0
    6.3416   -2.2899   -4.3451 C   0  0  0  0  0  0  0  0  0  0  0  0
    7.3661   -2.3029   -3.2299 C   0  0  0  0  0  0  0  0  0  0  0  0
    8.2598   -3.3740   -3.0913 C   0  0  0  0  0  0  0  0  0  0  0  0
    9.1844   -3.3924   -2.0439 C   0  0  0  0  0  0  0  0  0  0  0  0
    9.2079   -2.3430   -1.1307 C   0  0  0  0  0  0  0  0  0  0  0  0
   10.0862   -2.3265   -0.0882 O   0  0  0  0  0  0  0  0  0  0  0  0
    8.3302   -1.2737   -1.2521 C   0  0  0  0  0  0  0  0  0  0  0  0
    7.4163   -1.2488   -2.3048 C   0  0  0  0  0  0  0  0  0  0  0  0
    4.2364   -3.2849   -5.2731 N   0  0  0  0  0  0  0  0  0  0  0  0
    3.6318   -2.0209   -5.7131 C   0  0  0  0  0  0  0  0  0  0  0  0
    2.6887   -1.4051   -4.6718 C   0  0  0  0  0  0  0  0  0  0  0  0
    1.5578    0.1054    1.9091 H   0  0  0  0  0  0  0  0  0  0  0  0
    3.2661   -0.2157    1.6287 H   0  0  0  0  0  0  0  0  0  0  0  0
    2.0672   -1.5741    1.7617 H   0  0  0  0  0  0  0  0  0  0  0  0
    1.6150   -0.2976   -2.4402 H   0  0  0  0  0  0  0  0  0  0  0  0
    5.3221   -3.3887   -1.3523 H   0  0  0  0  0  0  0  0  0  0  0  0
    4.9935   -2.8647    0.7174 H   0  0  0  0  0  0  0  0  0  0  0  0
    5.3259   -4.0973   -3.7144 H   0  0  0  0  0  0  0  0  0  0  0  0
    6.1128   -1.2438   -4.5862 H   0  0  0  0  0  0  0  0  0  0  0  0
    6.8215   -2.7023   -5.2436 H   0  0  0  0  0  0  0  0  0  0  0  0
    8.2427   -4.1974   -3.8022 H   0  0  0  0  0  0  0  0  0  0  0  0
    9.8712   -4.2284   -1.9574 H   0  0  0  0  0  0  0  0  0  0  0  0
   10.6794   -3.0909   -0.1712 H   0  0  0  0  0  0  0  0  0  0  0  0
    8.3561   -0.4608   -0.5321 H   0  0  0  0  0  0  0  0  0  0  0  0
    6.7278   -0.4095   -2.3879 H   0  0  0  0  0  0  0  0  0  0  0  0
    3.4831   -3.9346   -5.0415 H   0  0  0  0  0  0  0  0  0  0  0  0
    3.0706   -2.2011   -6.6377 H   0  0  0  0  0  0  0  0  0  0  0  0
    4.4129   -1.3026   -5.9862 H   0  0  0  0  0  0  0  0  0  0  0  0
    1.7022   -1.8760   -4.7694 H   0  0  0  0  0  0  0  0  0  0  0  0
    2.5723   -0.3357   -4.8843 H   0  0  0  0  0  0  0  0  0  0  0  0
  1  2  1  0  0  0  0
  1 22  1  0  0  0  0
  1 23  1  0  0  0  0
  1 24  1  0  0  0  0
  2  3  1  0  0  0  0
  3  4  1  0  0  0  0
  3  8  2  0  0  0  0
  4  5  2  0  0  0  0
  4 25  1  0  0  0  0
  5  6  1  0  0  0  0
  5 21  1  0  0  0  0
  6  7  2  0  0  0  0
  6 10  1  0  0  0  0
  7  8  1  0  0  0  0
  7 26  1  0  0  0  0
  8  9  1  0  0  0  0
  9 27  1  0  0  0  0
 10 11  1  0  0  0  0
 10 19  1  0  0  0  0
 10 28  1  0  0  0  0
 11 12  1  0  0  0  0
 11 29  1  0  0  0  0
 11 30  1  0  0  0  0
 12 13  1  0  0  0  0
 12 18  2  0  0  0  0
 13 14  2  0  0  0  0
 13 31  1  0  0  0  0
 14 15  1  0  0  0  0
 14 32  1  0  0  0  0
 15 16  1  0  0  0  0
 15 17  2  0  0  0  0
 16 33  1  0  0  0  0
 17 18  1  0  0  0  0
 17 34  1  0  0  0  0
 18 35  1  0  0  0  0
 19 20  1  0  0  0  0
 19 36  1  0  0  0  0
 20 21  1  0  0  0  0
 20 37  1  0  0  0  0
 20 38  1  0  0  0  0
 21 39  1  0  0  0  0
 21 40  1  0  0  0  0
M  END
$$$$
