CHEBI:16904
 OpenBabel04242415313D

 24 26  0  0  0  0  0  0  0  0999 V2000
    0.0135   -2.6235    0.4557 O   0  0  0  0  0  0  0  0  0  0  0  0
    0.0252   -1.5733   -0.4949 C   0  0  0  0  0  0  0  0  0  0  0  0
    1.1925   -0.6253   -0.2893 C   0  0  0  0  0  0  0  0  0  0  0  0
    2.5489   -0.9048   -0.3536 C   0  0  0  0  0  0  0  0  0  0  0  0
    3.4443    0.1428   -0.1324 C   0  0  0  0  0  0  0  0  0  0  0  0
    2.9787    1.4398    0.1445 C   0  0  0  0  0  0  0  0  0  0  0  0
    1.6082    1.7142    0.2054 C   0  0  0  0  0  0  0  0  0  0  0  0
    0.7184    0.6762   -0.0134 C   0  0  0  0  0  0  0  0  0  0  0  0
   -0.7302    0.6541   -0.0078 C   0  0  0  0  0  0  0  0  0  0  0  0
   -1.6489    1.6663    0.2145 C   0  0  0  0  0  0  0  0  0  0  0  0
   -3.0111    1.3505    0.1689 C   0  0  0  0  0  0  0  0  0  0  0  0
   -3.4394    0.0378   -0.0930 C   0  0  0  0  0  0  0  0  0  0  0  0
   -2.5144   -0.9832   -0.3178 C   0  0  0  0  0  0  0  0  0  0  0  0
   -1.1666   -0.6629   -0.2753 C   0  0  0  0  0  0  0  0  0  0  0  0
    0.6123   -2.3603    1.1743 H   0  0  0  0  0  0  0  0  0  0  0  0
    0.0215   -1.9752   -1.5134 H   0  0  0  0  0  0  0  0  0  0  0  0
    2.9063   -1.9062   -0.5720 H   0  0  0  0  0  0  0  0  0  0  0  0
    4.5151   -0.0438   -0.1766 H   0  0  0  0  0  0  0  0  0  0  0  0
    3.6949    2.2411    0.3127 H   0  0  0  0  0  0  0  0  0  0  0  0
    1.2609    2.7191    0.4204 H   0  0  0  0  0  0  0  0  0  0  0  0
   -1.3306    2.6822    0.4217 H   0  0  0  0  0  0  0  0  0  0  0  0
   -3.7499    2.1297    0.3417 H   0  0  0  0  0  0  0  0  0  0  0  0
   -4.5038   -0.1847   -0.1183 H   0  0  0  0  0  0  0  0  0  0  0  0
   -2.8392   -2.0001   -0.5137 H   0  0  0  0  0  0  0  0  0  0  0  0
  1  2  1  0  0  0  0
  1 15  1  0  0  0  0
  2  3  1  0  0  0  0
  2 14  1  0  0  0  0
  2 16  1  0  0  0  0
  3  4  1  0  0  0  0
  3  8  2  0  0  0  0
  4  5  2  0  0  0  0
  4 17  1  0  0  0  0
  5  6  1  0  0  0  0
  5 18  1  0  0  0  0
  6  7  2  0  0  0  0
  6 19  1  0  0  0  0
  7  8  1  0  0  0  0
  7 20  1  0  0  0  0
  8  9  1  0  0  0  0
  9 10  1  0  0  0  0
  9 14  2  0  0  0  0
 10 11  2  0  0  0  0
 10 21  1  0  0  0  0
 11 12  1  0  0  0  0
 11 22  1  0  0  0  0
 12 13  2  0  0  0  0
 12 23  1  0  0  0  0
 13 14  1  0  0  0  0
 13 24  1  0  0  0  0
M  END
$$$$
