CHEBI:16106
 OpenBabel04242413503D

 16 16  0  0  0  0  0  0  0  0999 V2000
    3.5100    0.1624   -2.8724 O   0  0  0  0  0  0  0  0  0  0  0  0
    2.8978    0.6971   -1.9628 C   0  0  0  0  0  0  0  0  0  0  0  0
    1.6764    1.2458   -2.1503 O   0  0  0  0  0  0  0  0  0  0  0  0
    3.3586    0.7577   -0.5330 C   0  0  0  0  0  0  0  0  0  0  0  0
    4.8727    0.6129   -0.3883 C   0  0  0  0  0  0  0  0  0  0  0  0
    5.2702    0.7285    1.3630 Cl  0  0  0  0  0  0  0  0  0  0  0  0
    5.5104   -0.6160   -0.9060 C   0  0  0  0  0  0  0  0  0  0  0  0
    6.4607   -0.2925   -1.7744 C   0  0  0  0  0  0  0  0  0  0  0  0
    7.4787   -1.3317   -2.6273 Cl  0  0  0  0  0  0  0  0  0  0  0  0
    6.5005    1.1714   -1.8736 C   0  0  0  0  0  0  0  0  0  0  0  0
    7.2574    1.8384   -2.5544 O   0  0  0  0  0  0  0  0  0  0  0  0
    5.5447    1.6876   -1.0438 O   0  0  0  0  0  0  0  0  0  0  0  0
    1.2626    1.6420   -1.3595 H   0  0  0  0  0  0  0  0  0  0  0  0
    2.8295   -0.0286    0.0180 H   0  0  0  0  0  0  0  0  0  0  0  0
    3.0579    1.7359   -0.1360 H   0  0  0  0  0  0  0  0  0  0  0  0
    5.2434   -1.6223   -0.6224 H   0  0  0  0  0  0  0  0  0  0  0  0
  1  2  2  0  0  0  0
  2  3  1  0  0  0  0
  2  4  1  0  0  0  0
  3 13  1  0  0  0  0
  4  5  1  0  0  0  0
  4 14  1  0  0  0  0
  4 15  1  0  0  0  0
  5  6  1  0  0  0  0
  5  7  1  0  0  0  0
  5 12  1  0  0  0  0
  7  8  2  0  0  0  0
  7 16  1  0  0  0  0
  8  9  1  0  0  0  0
  8 10  1  0  0  0  0
 10 11  2  0  0  0  0
 10 12  1  0  0  0  0
M  END
$$$$
