CHEBI:17869
 OpenBabel04242423113D

 21 20  0  0  0  0  0  0  0  0999 V2000
    3.4619   -1.6082    2.5752 O   0  0  0  0  0  0  0  0  0  0  0  0
    4.6412   -1.3685    2.3631 C   0  0  0  0  0  0  0  0  0  0  0  0
    5.5783   -1.4397    3.3313 O   0  0  0  0  0  0  0  0  0  0  0  0
    5.1776   -0.9489    1.0173 C   0  0  0  0  0  0  0  0  0  0  0  0
    4.9675    0.5339    0.7291 C   0  0  0  0  0  0  0  0  0  0  0  0
    5.6858    1.5206    1.6552 C   0  0  0  0  0  0  0  0  0  0  0  0
    7.1807    1.7344    1.3866 C   0  0  0  0  0  0  0  0  0  0  0  0
    8.0986    0.5553    1.6778 C   0  0  0  0  0  0  0  0  0  0  0  0
    7.7288   -0.0907    2.8917 O   0  0  0  0  0  0  0  0  0  0  0  0
    6.4725   -1.1185    3.0537 H   0  0  0  0  0  0  0  0  0  0  0  0
    4.6313   -1.5376    0.2688 H   0  0  0  0  0  0  0  0  0  0  0  0
    6.2165   -1.2631    0.9086 H   0  0  0  0  0  0  0  0  0  0  0  0
    3.8913    0.7412    0.8015 H   0  0  0  0  0  0  0  0  0  0  0  0
    5.2495    0.7411   -0.3102 H   0  0  0  0  0  0  0  0  0  0  0  0
    5.5174    1.2615    2.7060 H   0  0  0  0  0  0  0  0  0  0  0  0
    5.2029    2.4976    1.5160 H   0  0  0  0  0  0  0  0  0  0  0  0
    7.4993    2.5671    2.0273 H   0  0  0  0  0  0  0  0  0  0  0  0
    7.3359    2.0668    0.3533 H   0  0  0  0  0  0  0  0  0  0  0  0
    9.1394    0.8862    1.7598 H   0  0  0  0  0  0  0  0  0  0  0  0
    8.0605   -0.1803    0.8707 H   0  0  0  0  0  0  0  0  0  0  0  0
    7.9355    0.5398    3.6116 H   0  0  0  0  0  0  0  0  0  0  0  0
  1  2  2  0  0  0  0
  2  3  1  0  0  0  0
  2  4  1  0  0  0  0
  3 10  1  0  0  0  0
  4  5  1  0  0  0  0
  4 11  1  0  0  0  0
  4 12  1  0  0  0  0
  5  6  1  0  0  0  0
  5 13  1  0  0  0  0
  5 14  1  0  0  0  0
  6  7  1  0  0  0  0
  6 15  1  0  0  0  0
  6 16  1  0  0  0  0
  7  8  1  0  0  0  0
  7 17  1  0  0  0  0
  7 18  1  0  0  0  0
  8  9  1  0  0  0  0
  8 19  1  0  0  0  0
  8 20  1  0  0  0  0
  9 21  1  0  0  0  0
M  END
$$$$
