CHEBI:17192
 OpenBabel04242415593D

 14 14  0  0  0  0  0  0  0  0999 V2000
    1.1334    0.0154   -0.0799 N   0  0  0  0  0  0  0  0  0  0  0  0
    2.2933    0.0311   -0.0787 C   0  0  0  0  0  0  0  0  0  0  0  0
    3.7268    0.0561   -0.0769 C   0  0  0  0  0  0  0  0  0  0  0  0
    4.4048    1.2798   -0.0767 C   0  0  0  0  0  0  0  0  0  0  0  0
    5.8010    1.2990   -0.0742 C   0  0  0  0  0  0  0  0  0  0  0  0
    6.6899    2.9737   -0.0741 Br  0  0  0  0  0  0  0  0  0  0  0  0
    6.5268    0.1038   -0.0717 C   0  0  0  0  0  0  0  0  0  0  0  0
    7.8961    0.1118   -0.0685 O   0  0  0  0  0  0  0  0  0  0  0  0
    5.8459   -1.1166   -0.0723 C   0  0  0  0  0  0  0  0  0  0  0  0
    6.7745   -2.7705   -0.0694 Br  0  0  0  0  0  0  0  0  0  0  0  0
    4.4483   -1.1427   -0.0750 C   0  0  0  0  0  0  0  0  0  0  0  0
    3.8438    2.2131   -0.0783 H   0  0  0  0  0  0  0  0  0  0  0  0
    8.1974    1.0385   -0.0672 H   0  0  0  0  0  0  0  0  0  0  0  0
    3.9212   -2.0957   -0.0754 H   0  0  0  0  0  0  0  0  0  0  0  0
  1  2  3  0  0  0  0
  2  3  1  0  0  0  0
  3  4  1  0  0  0  0
  3 11  2  0  0  0  0
  4  5  2  0  0  0  0
  4 12  1  0  0  0  0
  5  6  1  0  0  0  0
  5  7  1  0  0  0  0
  7  8  1  0  0  0  0
  7  9  2  0  0  0  0
  8 13  1  0  0  0  0
  9 10  1  0  0  0  0
  9 11  1  0  0  0  0
 11 14  1  0  0  0  0
M  END
$$$$
