CHEBI:17582
 OpenBabel04242416513D

 26 26  0  0  1  0  0  0  0  0999 V2000
    4.0059   -0.5521    1.1589 C   0  0  0  0  0  0  0  0  0  0  0  0
    2.9692   -0.5373    0.3036 C   0  0  0  0  0  0  0  0  0  0  0  0
    1.8879   -1.3988    0.2836 O   0  0  0  0  0  0  0  0  0  0  0  0
    1.8213   -2.4621    1.2486 C   0  0  1  0  0  0  0  0  0  0  0  0
    0.3518   -2.7519    1.4262 C   0  0  0  0  0  0  0  0  0  0  0  0
   -0.2159   -3.9244    1.1147 C   0  0  0  0  0  0  0  0  0  0  0  0
    0.5500   -5.0037    0.5473 C   0  0  0  0  0  0  0  0  0  0  0  0
    1.8806   -4.9131    0.3869 C   0  0  0  0  0  0  0  0  0  0  0  0
    2.5782   -6.0619   -0.2335 C   0  0  0  0  0  0  0  0  0  0  0  0
    2.0320   -6.8659   -0.9712 O   0  0  0  0  0  0  0  0  0  0  0  0
    3.8796   -6.1477    0.1095 O   0  0  0  0  0  0  0  0  0  0  0  0
    2.6634   -3.6909    0.7659 C   0  0  2  0  0  0  0  0  0  0  0  0
    3.5869   -4.1092    1.7926 O   0  0  0  0  0  0  0  0  0  0  0  0
    2.9853    0.5260   -0.7588 C   0  0  0  0  0  0  0  0  0  0  0  0
    3.8389    1.3849   -0.8891 O   0  0  0  0  0  0  0  0  0  0  0  0
    1.9127    0.4010   -1.5733 O   0  0  0  0  0  0  0  0  0  0  0  0
    4.1247   -1.2666    1.9622 H   0  0  0  0  0  0  0  0  0  0  0  0
    4.8040    0.1844    1.0745 H   0  0  0  0  0  0  0  0  0  0  0  0
    2.1715   -2.1123    2.2276 H   0  0  0  0  0  0  0  0  0  0  0  0
   -0.2641   -1.9521    1.8306 H   0  0  0  0  0  0  0  0  0  0  0  0
   -1.2826   -4.0832    1.2582 H   0  0  0  0  0  0  0  0  0  0  0  0
    0.0026   -5.8971    0.2480 H   0  0  0  0  0  0  0  0  0  0  0  0
    4.1588   -5.4944    0.7912 H   0  0  0  0  0  0  0  0  0  0  0  0
    3.2758   -3.3926   -0.0938 H   0  0  0  0  0  0  0  0  0  0  0  0
    3.0706   -4.2196    2.6155 H   0  0  0  0  0  0  0  0  0  0  0  0
    1.3530   -0.3522   -1.2924 H   0  0  0  0  0  0  0  0  0  0  0  0
  1  2  2  0  0  0  0
  1 17  1  0  0  0  0
  1 18  1  0  0  0  0
  2  3  1  0  0  0  0
  2 14  1  0  0  0  0
  3  4  1  0  0  0  0
  4  5  1  0  0  0  0
  4 12  1  0  0  0  0
  4 19  1  1  0  0  0
  5  6  2  0  0  0  0
  5 20  1  0  0  0  0
  6  7  1  0  0  0  0
  6 21  1  0  0  0  0
  7  8  2  0  0  0  0
  7 22  1  0  0  0  0
  8  9  1  0  0  0  0
  8 12  1  0  0  0  0
  9 10  2  0  0  0  0
  9 11  1  0  0  0  0
 11 23  1  0  0  0  0
 12 13  1  0  0  0  0
 12 24  1  6  0  0  0
 13 25  1  0  0  0  0
 14 15  2  0  0  0  0
 14 16  1  0  0  0  0
 16 26  1  0  0  0  0
M  END
$$$$
