CHEBI:16959
 OpenBabel04242415363D

 34 35  0  0  0  0  0  0  0  0999 V2000
    7.4107    1.0885    0.6009 C   0  0  0  0  0  0  0  0  0  0  0  0
    6.0172    1.4976    0.1456 C   0  0  0  0  0  0  0  0  0  0  0  0
    6.0491    2.0385   -1.2782 C   0  0  0  0  0  0  0  0  0  0  0  0
    4.3638    2.3621   -1.9051 S   0  0  0  0  0  0  0  0  0  0  0  0
    3.7123    3.3447   -0.9750 O   0  0  0  0  0  0  0  0  0  0  0  0
    4.8084    3.3203   -3.3835 C   0  0  0  0  0  0  0  0  0  0  0  0
    4.1502    4.5303   -3.6559 C   0  0  0  0  0  0  0  0  0  0  0  0
    4.5106    5.3420   -4.7420 C   0  0  0  0  0  0  0  0  0  0  0  0
    5.5740    4.8926   -5.5246 C   0  0  0  0  0  0  0  0  0  0  0  0
    6.2529    5.4426   -6.5819 N   0  0  0  0  0  0  0  0  0  0  0  0
    7.2669    4.5837   -6.9279 C   0  0  0  0  0  0  0  0  0  0  0  0
    8.2304    4.8504   -7.8578 N   0  0  0  0  0  0  0  0  0  0  0  0
    8.4056    6.0724   -8.4290 C   0  0  0  0  0  0  0  0  0  0  0  0
    7.6835    7.0513   -8.2775 O   0  0  0  0  0  0  0  0  0  0  0  0
    9.5431    6.0498   -9.1686 O   0  0  0  0  0  0  0  0  0  0  0  0
    9.9227    7.3070   -9.7302 C   0  0  0  0  0  0  0  0  0  0  0  0
    7.2214    3.4802   -6.2203 N   0  0  0  0  0  0  0  0  0  0  0  0
    6.2115    3.6764   -5.3133 C   0  0  0  0  0  0  0  0  0  0  0  0
    5.8086    2.8580   -4.2507 C   0  0  0  0  0  0  0  0  0  0  0  0
    7.3834    0.7223    1.6317 H   0  0  0  0  0  0  0  0  0  0  0  0
    8.1036    1.9351    0.5578 H   0  0  0  0  0  0  0  0  0  0  0  0
    7.8091    0.2885   -0.0321 H   0  0  0  0  0  0  0  0  0  0  0  0
    5.6230    2.2589    0.8290 H   0  0  0  0  0  0  0  0  0  0  0  0
    5.3496    0.6305    0.2125 H   0  0  0  0  0  0  0  0  0  0  0  0
    6.5120    1.3002   -1.9399 H   0  0  0  0  0  0  0  0  0  0  0  0
    6.6277    2.9674   -1.3184 H   0  0  0  0  0  0  0  0  0  0  0  0
    3.3498    4.8674   -2.9967 H   0  0  0  0  0  0  0  0  0  0  0  0
    4.0089    6.2851   -4.9312 H   0  0  0  0  0  0  0  0  0  0  0  0
    6.1057    6.3533   -6.9981 H   0  0  0  0  0  0  0  0  0  0  0  0
    8.9367    4.1450   -8.0043 H   0  0  0  0  0  0  0  0  0  0  0  0
   10.6991    7.1205  -10.4775 H   0  0  0  0  0  0  0  0  0  0  0  0
   10.3413    7.9466   -8.9473 H   0  0  0  0  0  0  0  0  0  0  0  0
    9.0801    7.7994  -10.2247 H   0  0  0  0  0  0  0  0  0  0  0  0
    6.3185    1.9147   -4.1028 H   0  0  0  0  0  0  0  0  0  0  0  0
  1  2  1  0  0  0  0
  1 20  1  0  0  0  0
  1 21  1  0  0  0  0
  1 22  1  0  0  0  0
  2  3  1  0  0  0  0
  2 23  1  0  0  0  0
  2 24  1  0  0  0  0
  3  4  1  0  0  0  0
  3 25  1  0  0  0  0
  3 26  1  0  0  0  0
  4  5  2  0  0  0  0
  4  6  1  0  0  0  0
  6  7  1  0  0  0  0
  6 19  2  0  0  0  0
  7  8  2  0  0  0  0
  7 27  1  0  0  0  0
  8  9  1  0  0  0  0
  8 28  1  0  0  0  0
  9 10  1  0  0  0  0
  9 18  2  0  0  0  0
 10 11  1  0  0  0  0
 10 29  1  0  0  0  0
 11 12  1  0  0  0  0
 11 17  2  0  0  0  0
 12 13  1  0  0  0  0
 12 30  1  0  0  0  0
 13 14  2  0  0  0  0
 13 15  1  0  0  0  0
 15 16  1  0  0  0  0
 16 31  1  0  0  0  0
 16 32  1  0  0  0  0
 16 33  1  0  0  0  0
 17 18  1  0  0  0  0
 18 19  1  0  0  0  0
 19 34  1  0  0  0  0
M  END
$$$$
