CHEBI:18088
 OpenBabel04242423313D

 32 34  0  0  0  0  0  0  0  0999 V2000
    4.2811    0.8131    0.9012 C   0  0  0  0  0  0  0  0  0  0  0  0
    3.6858   -0.0172   -0.0882 O   0  0  0  0  0  0  0  0  0  0  0  0
    3.9369    0.3030   -1.3931 C   0  0  0  0  0  0  0  0  0  0  0  0
    4.7818    1.3137   -1.8439 C   0  0  0  0  0  0  0  0  0  0  0  0
    4.9498    1.5336   -3.2186 C   0  0  0  0  0  0  0  0  0  0  0  0
    4.2745    0.7567   -4.1710 C   0  0  0  0  0  0  0  0  0  0  0  0
    4.4475    1.0057   -5.6215 C   0  0  0  0  0  0  0  0  0  0  0  0
    4.5061   -0.0147   -6.4947 C   0  0  0  0  0  0  0  0  0  0  0  0
    4.6587    0.0628   -7.8580 O   0  0  0  0  0  0  0  0  0  0  0  0
    4.8073    1.3066   -8.4133 C   0  0  0  0  0  0  0  0  0  0  0  0
    4.9787    1.3689   -9.7975 C   0  0  0  0  0  0  0  0  0  0  0  0
    5.1478    2.6099  -10.4052 C   0  0  0  0  0  0  0  0  0  0  0  0
    5.3165    2.7242  -11.7530 O   0  0  0  0  0  0  0  0  0  0  0  0
    5.1507    3.7814   -9.6535 C   0  0  0  0  0  0  0  0  0  0  0  0
    4.9717    3.7165   -8.2710 C   0  0  0  0  0  0  0  0  0  0  0  0
    4.7958    2.4732   -7.6532 C   0  0  0  0  0  0  0  0  0  0  0  0
    4.5913    2.3786   -6.1961 C   0  0  0  0  0  0  0  0  0  0  0  0
    4.5419    3.3975   -5.5160 O   0  0  0  0  0  0  0  0  0  0  0  0
    3.4209   -0.2536   -3.7006 C   0  0  0  0  0  0  0  0  0  0  0  0
    3.2627   -0.4810   -2.3287 C   0  0  0  0  0  0  0  0  0  0  0  0
    3.9573    0.4497    1.8813 H   0  0  0  0  0  0  0  0  0  0  0  0
    3.9438    1.8504    0.8028 H   0  0  0  0  0  0  0  0  0  0  0  0
    5.3735    0.7467    0.8659 H   0  0  0  0  0  0  0  0  0  0  0  0
    5.3255    1.9555   -1.1588 H   0  0  0  0  0  0  0  0  0  0  0  0
    5.6176    2.3349   -3.5313 H   0  0  0  0  0  0  0  0  0  0  0  0
    4.4410   -1.0590   -6.2126 H   0  0  0  0  0  0  0  0  0  0  0  0
    4.9792    0.4523  -10.3783 H   0  0  0  0  0  0  0  0  0  0  0  0
    5.2726    1.8408  -12.1551 H   0  0  0  0  0  0  0  0  0  0  0  0
    5.2885    4.7423  -10.1426 H   0  0  0  0  0  0  0  0  0  0  0  0
    4.9689    4.6307   -7.6814 H   0  0  0  0  0  0  0  0  0  0  0  0
    2.8531   -0.8740   -4.3899 H   0  0  0  0  0  0  0  0  0  0  0  0
    2.5981   -1.2712   -1.9875 H   0  0  0  0  0  0  0  0  0  0  0  0
  1  2  1  0  0  0  0
  1 21  1  0  0  0  0
  1 22  1  0  0  0  0
  1 23  1  0  0  0  0
  2  3  1  0  0  0  0
  3  4  1  0  0  0  0
  3 20  2  0  0  0  0
  4  5  2  0  0  0  0
  4 24  1  0  0  0  0
  5  6  1  0  0  0  0
  5 25  1  0  0  0  0
  6  7  1  0  0  0  0
  6 19  2  0  0  0  0
  7  8  2  0  0  0  0
  7 17  1  0  0  0  0
  8  9  1  0  0  0  0
  8 26  1  0  0  0  0
  9 10  1  0  0  0  0
 10 11  1  0  0  0  0
 10 16  2  0  0  0  0
 11 12  2  0  0  0  0
 11 27  1  0  0  0  0
 12 13  1  0  0  0  0
 12 14  1  0  0  0  0
 13 28  1  0  0  0  0
 14 15  2  0  0  0  0
 14 29  1  0  0  0  0
 15 16  1  0  0  0  0
 15 30  1  0  0  0  0
 16 17  1  0  0  0  0
 17 18  2  0  0  0  0
 19 20  1  0  0  0  0
 19 31  1  0  0  0  0
 20 32  1  0  0  0  0
M  END
$$$$
