CHEBI:18370
 OpenBabel04252409283D

 52 54  0  0  1  0  0  0  0  0999 V2000
   10.0142    0.1118   -4.8340 C   0  0  0  0  0  0  0  0  0  0  0  0
   10.9638    0.7972   -4.0181 O   0  0  0  0  0  0  0  0  0  0  0  0
   10.6722    2.1039   -3.7968 C   0  0  0  0  0  0  0  0  0  0  0  0
    9.6964    2.6974   -4.2302 O   0  0  0  0  0  0  0  0  0  0  0  0
   11.6910    2.7436   -2.9234 C   0  0  0  0  0  0  0  0  0  0  0  0
   12.7869    2.0830   -2.5197 C   0  0  0  0  0  0  0  0  0  0  0  0
   13.7676    2.5887   -1.7066 O   0  0  0  0  0  0  0  0  0  0  0  0
   13.3935    3.7708   -0.9803 C   0  0  1  0  0  0  0  0  0  0  0  0
   14.5418    4.3759   -0.3825 O   0  0  0  0  0  0  0  0  0  0  0  0
   15.1662    3.5146    0.5744 C   0  0  2  0  0  0  0  0  0  0  0  0
   14.2460    3.2500    1.6391 O   0  0  0  0  0  0  0  0  0  0  0  0
   14.8022    2.4057    2.6496 C   0  0  2  0  0  0  0  0  0  0  0  0
   13.6922    1.9906    3.6234 C   0  0  0  0  0  0  0  0  0  0  0  0
   14.1450    1.0406    4.5811 O   0  0  0  0  0  0  0  0  0  0  0  0
   15.9276    3.1703    3.3569 C   0  0  1  0  0  0  0  0  0  0  0  0
   16.4984    2.4040    4.4217 O   0  0  0  0  0  0  0  0  0  0  0  0
   17.0059    3.5133    2.3275 C   0  0  2  0  0  0  0  0  0  0  0  0
   18.0246    4.3191    2.9495 O   0  0  0  0  0  0  0  0  0  0  0  0
   16.4281    4.2357    1.1058 C   0  0  1  0  0  0  0  0  0  0  0  0
   17.4511    4.3135    0.1001 O   0  0  0  0  0  0  0  0  0  0  0  0
   12.7397    4.8018   -1.9187 C   0  0  1  0  0  0  0  0  0  0  0  0
   11.4889    4.1889   -2.5673 C   0  0  2  0  0  0  0  0  0  0  0  0
   10.3829    4.4207   -1.5309 C   0  0  0  0  0  0  0  0  0  0  0  0
   10.7927    5.6607   -0.7323 C   0  0  0  0  0  0  0  0  0  0  0  0
   12.2053    6.0479   -1.1921 C   0  0  2  0  0  0  0  0  0  0  0  0
   12.1646    7.2678   -2.1157 C   0  0  0  0  0  0  0  0  0  0  0  0
   10.3588   -0.9188   -4.9578 H   0  0  0  0  0  0  0  0  0  0  0  0
    9.9496    0.5764   -5.8226 H   0  0  0  0  0  0  0  0  0  0  0  0
    9.0347    0.0932   -4.3465 H   0  0  0  0  0  0  0  0  0  0  0  0
   13.0415    1.0701   -2.8092 H   0  0  0  0  0  0  0  0  0  0  0  0
   12.6893    3.4834   -0.1886 H   0  0  0  0  0  0  0  0  0  0  0  0
   15.4575    2.5779    0.0821 H   0  0  0  0  0  0  0  0  0  0  0  0
   15.2024    1.4882    2.1959 H   0  0  0  0  0  0  0  0  0  0  0  0
   13.2861    2.8605    4.1507 H   0  0  0  0  0  0  0  0  0  0  0  0
   12.8599    1.5414    3.0705 H   0  0  0  0  0  0  0  0  0  0  0  0
   15.0210    1.3487    4.8988 H   0  0  0  0  0  0  0  0  0  0  0  0
   15.5411    4.0971    3.7991 H   0  0  0  0  0  0  0  0  0  0  0  0
   17.3753    2.8011    4.6041 H   0  0  0  0  0  0  0  0  0  0  0  0
   17.5226    2.5981    2.0124 H   0  0  0  0  0  0  0  0  0  0  0  0
   17.6358    5.1844    3.1758 H   0  0  0  0  0  0  0  0  0  0  0  0
   16.1774    5.2707    1.3684 H   0  0  0  0  0  0  0  0  0  0  0  0
   18.2710    4.5925    0.5494 H   0  0  0  0  0  0  0  0  0  0  0  0
   13.4726    5.0823   -2.6873 H   0  0  0  0  0  0  0  0  0  0  0  0
   11.2548    4.7596   -3.4759 H   0  0  0  0  0  0  0  0  0  0  0  0
   10.2746    3.5659   -0.8517 H   0  0  0  0  0  0  0  0  0  0  0  0
    9.4107    4.5680   -2.0140 H   0  0  0  0  0  0  0  0  0  0  0  0
   10.7988    5.4177    0.3370 H   0  0  0  0  0  0  0  0  0  0  0  0
   10.0721    6.4747   -0.8681 H   0  0  0  0  0  0  0  0  0  0  0  0
   12.8251    6.3107   -0.3273 H   0  0  0  0  0  0  0  0  0  0  0  0
   11.5294    7.0996   -2.9913 H   0  0  0  0  0  0  0  0  0  0  0  0
   13.1706    7.5168   -2.4692 H   0  0  0  0  0  0  0  0  0  0  0  0
   11.7737    8.1405   -1.5814 H   0  0  0  0  0  0  0  0  0  0  0  0
  1  2  1  0  0  0  0
  1 27  1  0  0  0  0
  1 28  1  0  0  0  0
  1 29  1  0  0  0  0
  2  3  1  0  0  0  0
  3  4  2  0  0  0  0
  3  5  1  0  0  0  0
  5  6  2  0  0  0  0
  5 22  1  0  0  0  0
  6  7  1  0  0  0  0
  6 30  1  0  0  0  0
  7  8  1  0  0  0  0
  8  9  1  0  0  0  0
  8 21  1  0  0  0  0
  8 31  1  1  0  0  0
 10 11  1  0  0  0  0
 10 19  1  0  0  0  0
 10  9  1  0  0  0  0
 10 32  1  6  0  0  0
 11 12  1  0  0  0  0
 12 15  1  0  0  0  0
 12 13  1  0  0  0  0
 12 33  1  6  0  0  0
 13 14  1  0  0  0  0
 13 34  1  0  0  0  0
 13 35  1  0  0  0  0
 14 36  1  0  0  0  0
 15 16  1  0  0  0  0
 15 17  1  0  0  0  0
 15 37  1  1  0  0  0
 16 38  1  0  0  0  0
 17 18  1  0  0  0  0
 17 19  1  0  0  0  0
 17 39  1  6  0  0  0
 18 40  1  0  0  0  0
 19 20  1  0  0  0  0
 19 41  1  1  0  0  0
 20 42  1  0  0  0  0
 21 22  1  0  0  0  0
 21 25  1  0  0  0  0
 21 43  1  6  0  0  0
 22 23  1  0  0  0  0
 22 44  1  6  0  0  0
 23 24  1  0  0  0  0
 23 45  1  0  0  0  0
 23 46  1  0  0  0  0
 24 25  1  0  0  0  0
 24 47  1  0  0  0  0
 24 48  1  0  0  0  0
 25 26  1  0  0  0  0
 25 49  1  1  0  0  0
 26 50  1  0  0  0  0
 26 51  1  0  0  0  0
 26 52  1  0  0  0  0
M  END
$$$$
