CHEBI:17665
 OpenBabel04242417043D

 29 29  0  0  1  0  0  0  0  0999 V2000
    6.7590    0.9707    2.8783 O   0  0  0  0  0  0  0  0  0  0  0  0
    6.3081    2.3729    2.6632 P   0  0  0  0  0  0  0  0  0  0  0  0
    5.1583    2.8770    3.6464 O   0  0  0  0  0  0  0  0  0  0  0  0
    7.4271    3.4864    2.8893 O   0  0  0  0  0  0  0  0  0  0  0  0
    5.7502    2.7687    1.2172 O   0  0  0  0  0  0  0  0  0  0  0  0
    5.7726    1.8038    0.1843 C   0  0  0  0  0  0  0  0  0  0  0  0
    7.1704    1.2905   -0.2161 C   0  0  1  0  0  0  0  0  0  0  0  0
    6.9767    0.3771   -1.3080 O   0  0  0  0  0  0  0  0  0  0  0  0
    8.1621   -0.2170   -1.8112 C   0  0  2  0  0  0  0  0  0  0  0  0
    8.7055   -1.1704   -0.9063 O   0  0  0  0  0  0  0  0  0  0  0  0
    9.2099    0.8212   -2.2406 C   0  0  2  0  0  0  0  0  0  0  0  0
   10.4621    0.2124   -2.5905 O   0  0  0  0  0  0  0  0  0  0  0  0
    9.4595    1.8214   -1.1179 C   0  0  1  0  0  0  0  0  0  0  0  0
   10.2982    2.8942   -1.5772 O   0  0  0  0  0  0  0  0  0  0  0  0
    8.1503    2.4179   -0.5905 C   0  0  2  0  0  0  0  0  0  0  0  0
    8.4911    3.2481    0.5358 O   0  0  0  0  0  0  0  0  0  0  0  0
    5.4208    2.7510    4.5745 H   0  0  0  0  0  0  0  0  0  0  0  0
    8.0302    3.4791    2.1095 H   0  0  0  0  0  0  0  0  0  0  0  0
    5.2902    2.2533   -0.6919 H   0  0  0  0  0  0  0  0  0  0  0  0
    5.1329    0.9603    0.4706 H   0  0  0  0  0  0  0  0  0  0  0  0
    7.5875    0.7358    0.6288 H   0  0  0  0  0  0  0  0  0  0  0  0
    7.8778   -0.7958   -2.6960 H   0  0  0  0  0  0  0  0  0  0  0  0
    8.9852   -0.7186   -0.0950 H   0  0  0  0  0  0  0  0  0  0  0  0
    8.8547    1.3640   -3.1245 H   0  0  0  0  0  0  0  0  0  0  0  0
   10.4496   -0.6969   -2.2272 H   0  0  0  0  0  0  0  0  0  0  0  0
   10.0178    1.3506   -0.2991 H   0  0  0  0  0  0  0  0  0  0  0  0
   11.0112    2.4656   -2.0952 H   0  0  0  0  0  0  0  0  0  0  0  0
    7.7071    3.0693   -1.3541 H   0  0  0  0  0  0  0  0  0  0  0  0
    9.1892    3.8437    0.1766 H   0  0  0  0  0  0  0  0  0  0  0  0
  1  2  2  0  0  0  0
  2  3  1  0  0  0  0
  2  4  1  0  0  0  0
  2  5  1  0  0  0  0
  3 17  1  0  0  0  0
  4 18  1  0  0  0  0
  5  6  1  0  0  0  0
  6  7  1  0  0  0  0
  6 19  1  0  0  0  0
  6 20  1  0  0  0  0
  7  8  1  0  0  0  0
  7 15  1  0  0  0  0
  7 21  1  1  0  0  0
  8  9  1  0  0  0  0
  9 10  1  0  0  0  0
  9 11  1  0  0  0  0
  9 22  1  6  0  0  0
 10 23  1  0  0  0  0
 11 12  1  0  0  0  0
 11 13  1  0  0  0  0
 11 24  1  6  0  0  0
 12 25  1  0  0  0  0
 13 14  1  0  0  0  0
 13 15  1  0  0  0  0
 13 26  1  1  0  0  0
 14 27  1  0  0  0  0
 15 16  1  0  0  0  0
 15 28  1  6  0  0  0
 16 29  1  0  0  0  0
M  END
$$$$
