CHEBI:16716
 OpenBabel04242415073D

 12 12  0  0  0  0  0  0  0  0999 V2000
    1.3769   -0.2186    0.0039 C   0  0  0  0  0  0  0  0  0  0  0  0
    0.8742    1.0825    0.0100 C   0  0  0  0  0  0  0  0  0  0  0  0
   -0.5040    1.2977    0.0095 C   0  0  0  0  0  0  0  0  0  0  0  0
   -1.3794    0.2118    0.0022 C   0  0  0  0  0  0  0  0  0  0  0  0
   -0.8767   -1.0892   -0.0041 C   0  0  0  0  0  0  0  0  0  0  0  0
    0.5014   -1.3044   -0.0031 C   0  0  0  0  0  0  0  0  0  0  0  0
    2.4506   -0.3862    0.0045 H   0  0  0  0  0  0  0  0  0  0  0  0
    1.5562    1.9285    0.0153 H   0  0  0  0  0  0  0  0  0  0  0  0
   -0.8956    2.3114    0.0146 H   0  0  0  0  0  0  0  0  0  0  0  0
   -2.4531    0.3795    0.0016 H   0  0  0  0  0  0  0  0  0  0  0  0
   -1.5587   -1.9353   -0.0099 H   0  0  0  0  0  0  0  0  0  0  0  0
    0.8931   -2.3181   -0.0077 H   0  0  0  0  0  0  0  0  0  0  0  0
  1  2  1  0  0  0  0
  1  6  2  0  0  0  0
  1  7  1  0  0  0  0
  2  3  2  0  0  0  0
  2  8  1  0  0  0  0
  3  4  1  0  0  0  0
  3  9  1  0  0  0  0
  4  5  2  0  0  0  0
  4 10  1  0  0  0  0
  5  6  1  0  0  0  0
  5 11  1  0  0  0  0
  6 12  1  0  0  0  0
M  END
$$$$
