CHEBI:16606
 OpenBabel04242414533D

 30 31  0  0  0  0  0  0  0  0999 V2000
    0.3221   -0.6743    0.9813 O   0  0  0  0  0  0  0  0  0  0  0  0
    1.5138   -0.4225    0.8449 C   0  0  0  0  0  0  0  0  0  0  0  0
    2.1059    0.8210    0.9492 N   0  0  0  0  0  0  0  0  0  0  0  0
    1.5021    2.0406    1.3494 C   0  0  0  0  0  0  0  0  0  0  0  0
    0.2234    2.0878    1.9178 C   0  0  0  0  0  0  0  0  0  0  0  0
   -0.3164    3.3050    2.3330 C   0  0  0  0  0  0  0  0  0  0  0  0
   -1.5574    3.3724    2.8947 O   0  0  0  0  0  0  0  0  0  0  0  0
    0.3955    4.4901    2.2055 C   0  0  0  0  0  0  0  0  0  0  0  0
    1.6688    4.4672    1.6424 C   0  0  0  0  0  0  0  0  0  0  0  0
    2.2154    3.2516    1.1962 C   0  0  0  0  0  0  0  0  0  0  0  0
    3.5604    3.2459    0.5676 C   0  0  0  0  0  0  0  0  0  0  0  0
    4.3532    2.3300    0.7171 O   0  0  0  0  0  0  0  0  0  0  0  0
    3.7871    4.2947   -0.2503 O   0  0  0  0  0  0  0  0  0  0  0  0
    2.4399   -1.5262    0.4676 C   0  0  0  0  0  0  0  0  0  0  0  0
    1.9688   -2.5310   -0.3863 C   0  0  0  0  0  0  0  0  0  0  0  0
    2.8100   -3.5783   -0.7647 C   0  0  0  0  0  0  0  0  0  0  0  0
    4.1167   -3.6322   -0.2800 C   0  0  0  0  0  0  0  0  0  0  0  0
    4.5846   -2.6430    0.5857 C   0  0  0  0  0  0  0  0  0  0  0  0
    3.7492   -1.5891    0.9624 C   0  0  0  0  0  0  0  0  0  0  0  0
    3.0851    0.8923    0.6652 H   0  0  0  0  0  0  0  0  0  0  0  0
   -0.3539    1.1818    2.0653 H   0  0  0  0  0  0  0  0  0  0  0  0
   -1.9359    2.4761    2.9220 H   0  0  0  0  0  0  0  0  0  0  0  0
   -0.0388    5.4232    2.5555 H   0  0  0  0  0  0  0  0  0  0  0  0
    2.2316    5.3955    1.5816 H   0  0  0  0  0  0  0  0  0  0  0  0
    3.0040    4.8427   -0.4490 H   0  0  0  0  0  0  0  0  0  0  0  0
    0.9484   -2.4947   -0.7621 H   0  0  0  0  0  0  0  0  0  0  0  0
    2.4449   -4.3526   -1.4348 H   0  0  0  0  0  0  0  0  0  0  0  0
    4.7702   -4.4508   -0.5722 H   0  0  0  0  0  0  0  0  0  0  0  0
    5.5999   -2.6955    0.9717 H   0  0  0  0  0  0  0  0  0  0  0  0
    4.1259   -0.8408    1.6555 H   0  0  0  0  0  0  0  0  0  0  0  0
  1  2  2  0  0  0  0
  2  3  1  0  0  0  0
  2 14  1  0  0  0  0
  3  4  1  0  0  0  0
  3 20  1  0  0  0  0
  4  5  1  0  0  0  0
  4 10  2  0  0  0  0
  5  6  2  0  0  0  0
  5 21  1  0  0  0  0
  6  7  1  0  0  0  0
  6  8  1  0  0  0  0
  7 22  1  0  0  0  0
  8  9  2  0  0  0  0
  8 23  1  0  0  0  0
  9 10  1  0  0  0  0
  9 24  1  0  0  0  0
 10 11  1  0  0  0  0
 11 12  2  0  0  0  0
 11 13  1  0  0  0  0
 13 25  1  0  0  0  0
 14 15  1  0  0  0  0
 14 19  2  0  0  0  0
 15 16  2  0  0  0  0
 15 26  1  0  0  0  0
 16 17  1  0  0  0  0
 16 27  1  0  0  0  0
 17 18  2  0  0  0  0
 17 28  1  0  0  0  0
 18 19  1  0  0  0  0
 18 29  1  0  0  0  0
 19 30  1  0  0  0  0
M  END
$$$$
