CHEBI:17179
 OpenBabel04242415593D

 77 80  0  0  1  0  0  0  0  0999 V2000
    1.1696    2.0406    1.4631 C   0  0  0  0  0  0  0  0  0  0  0  0
    1.2957    1.4138    0.0699 C   0  0  2  0  0  0  0  0  0  0  0  0
    1.8913   -0.0128    0.1919 C   0  0  0  0  0  0  0  0  0  0  0  0
    3.2885   -0.0887    0.8042 C   0  0  0  0  0  0  0  0  0  0  0  0
    3.7027   -1.5358    0.9884 C   0  0  0  0  0  0  0  0  0  0  0  0
    4.1403   -2.2084    0.0581 O   0  0  0  0  0  0  0  0  0  0  0  0
    3.5372   -2.0037    2.2670 N   0  0  0  0  0  0  0  0  0  0  0  0
    3.7305   -3.3988    2.6338 C   0  0  0  0  0  0  0  0  0  0  0  0
    4.0273   -3.5727    4.1127 C   0  0  0  0  0  0  0  0  0  0  0  0
    2.6010   -3.2407    5.1157 S   0  0  0  0  0  0  0  0  0  0  0  0
    2.2069   -1.8919    4.7002 O   0  0  0  0  0  0  0  0  0  0  0  0
    1.6674   -4.2989    4.7401 O   0  0  0  0  0  0  0  0  0  0  0  0
    3.1248   -3.3351    6.4760 O   0  5  0  0  0  0  0  0  0  0  0  0
    2.0521    2.3286   -0.9403 C   0  0  1  0  0  0  0  0  0  0  0  0
    2.1440    1.6869   -2.3541 C   0  0  0  0  0  0  0  0  0  0  0  0
    2.0666    2.8219   -3.3846 C   0  0  0  0  0  0  0  0  0  0  0  0
    2.1989    4.0923   -2.5589 C   0  0  1  0  0  0  0  0  0  0  0  0
    1.7009    5.4067   -3.1773 C   0  0  2  0  0  0  0  0  0  0  0  0
    2.3538    5.7093   -4.5316 C   0  0  0  0  0  0  0  0  0  0  0  0
    1.8364    7.0237   -5.1158 C   0  0  0  0  0  0  0  0  0  0  0  0
    1.9864    8.2217   -4.1602 C   0  0  2  0  0  0  0  0  0  0  0  0
    3.4621    8.6660   -4.1026 C   0  0  0  0  0  0  0  0  0  0  0  0
    3.6767    9.8454   -3.1603 C   0  0  2  0  0  0  0  0  0  0  0  0
    5.0629   10.1642   -3.0997 O   0  0  0  0  0  0  0  0  0  0  0  0
    3.1595    9.5347   -1.7623 C   0  0  0  0  0  0  0  0  0  0  0  0
    1.6872    9.1489   -1.8090 C   0  0  0  0  0  0  0  0  0  0  0  0
    1.3747    7.9432   -2.7437 C   0  0  1  0  0  0  0  0  0  0  0  0
   -0.1733    7.8943   -2.8646 C   0  0  0  0  0  0  0  0  0  0  0  0
    1.9439    6.5826   -2.1802 C   0  0  1  0  0  0  0  0  0  0  0  0
    1.4748    6.2524   -0.7382 C   0  0  0  0  0  0  0  0  0  0  0  0
    1.8678    4.8504   -0.2401 C   0  0  0  0  0  0  0  0  0  0  0  0
    1.4667    3.7485   -1.2353 C   0  0  2  0  0  0  0  0  0  0  0  0
   -0.0754    3.6889   -1.3831 C   0  0  0  0  0  0  0  0  0  0  0  0
    0.4540    2.8657    1.4673 H   0  0  0  0  0  0  0  0  0  0  0  0
    2.1304    2.4220    1.8226 H   0  0  0  0  0  0  0  0  0  0  0  0
    0.7991    1.3095    2.1901 H   0  0  0  0  0  0  0  0  0  0  0  0
    0.2752    1.2646   -0.3071 H   0  0  0  0  0  0  0  0  0  0  0  0
    1.2054   -0.6201    0.7990 H   0  0  0  0  0  0  0  0  0  0  0  0
    1.9019   -0.4996   -0.7909 H   0  0  0  0  0  0  0  0  0  0  0  0
    3.3256    0.4184    1.7741 H   0  0  0  0  0  0  0  0  0  0  0  0
    4.0316    0.3946    0.1616 H   0  0  0  0  0  0  0  0  0  0  0  0
    2.9276   -1.4888    2.9125 H   0  0  0  0  0  0  0  0  0  0  0  0
    4.5672   -3.7915    2.0455 H   0  0  0  0  0  0  0  0  0  0  0  0
    2.8307   -3.9444    2.3302 H   0  0  0  0  0  0  0  0  0  0  0  0
    4.8228   -2.8930    4.4367 H   0  0  0  0  0  0  0  0  0  0  0  0
    4.3373   -4.6009    4.3262 H   0  0  0  0  0  0  0  0  0  0  0  0
    3.0803    2.4600   -0.5737 H   0  0  0  0  0  0  0  0  0  0  0  0
    1.3297    0.9778   -2.5402 H   0  0  0  0  0  0  0  0  0  0  0  0
    3.0867    1.1369   -2.4557 H   0  0  0  0  0  0  0  0  0  0  0  0
    1.1090    2.7875   -3.9163 H   0  0  0  0  0  0  0  0  0  0  0  0
    2.8606    2.7337   -4.1334 H   0  0  0  0  0  0  0  0  0  0  0  0
    3.2741    4.2153   -2.3492 H   0  0  0  0  0  0  0  0  0  0  0  0
    0.6299    5.3020   -3.3723 H   0  0  0  0  0  0  0  0  0  0  0  0
    2.1351    4.9051   -5.2438 H   0  0  0  0  0  0  0  0  0  0  0  0
    3.4445    5.7440   -4.4283 H   0  0  0  0  0  0  0  0  0  0  0  0
    0.7785    6.9016   -5.3794 H   0  0  0  0  0  0  0  0  0  0  0  0
    2.3560    7.2294   -6.0597 H   0  0  0  0  0  0  0  0  0  0  0  0
    1.4325    9.0593   -4.6095 H   0  0  0  0  0  0  0  0  0  0  0  0
    3.8040    8.9493   -5.1069 H   0  0  0  0  0  0  0  0  0  0  0  0
    4.1160    7.8392   -3.8019 H   0  0  0  0  0  0  0  0  0  0  0  0
    3.1608   10.7283   -3.5558 H   0  0  0  0  0  0  0  0  0  0  0  0
    5.5305    9.3904   -2.7407 H   0  0  0  0  0  0  0  0  0  0  0  0
    3.2936   10.4138   -1.1200 H   0  0  0  0  0  0  0  0  0  0  0  0
    3.7569    8.7410   -1.2985 H   0  0  0  0  0  0  0  0  0  0  0  0
    1.1255   10.0270   -2.1583 H   0  0  0  0  0  0  0  0  0  0  0  0
    1.3264    8.9629   -0.7916 H   0  0  0  0  0  0  0  0  0  0  0  0
   -0.5567    8.8163   -3.3178 H   0  0  0  0  0  0  0  0  0  0  0  0
   -0.6530    7.8042   -1.8848 H   0  0  0  0  0  0  0  0  0  0  0  0
   -0.5307    7.0688   -3.4840 H   0  0  0  0  0  0  0  0  0  0  0  0
    3.0353    6.6900   -2.1024 H   0  0  0  0  0  0  0  0  0  0  0  0
    0.3902    6.3596   -0.6509 H   0  0  0  0  0  0  0  0  0  0  0  0
    1.9085    6.9782   -0.0402 H   0  0  0  0  0  0  0  0  0  0  0  0
    1.4081    4.6922    0.7391 H   0  0  0  0  0  0  0  0  0  0  0  0
    2.9533    4.8289   -0.0751 H   0  0  0  0  0  0  0  0  0  0  0  0
   -0.5580    3.4842   -0.4231 H   0  0  0  0  0  0  0  0  0  0  0  0
   -0.3924    2.9077   -2.0812 H   0  0  0  0  0  0  0  0  0  0  0  0
   -0.5096    4.6264   -1.7390 H   0  0  0  0  0  0  0  0  0  0  0  0
  1 34  1  0  0  0  0
  1 35  1  0  0  0  0
  1 36  1  0  0  0  0
  2 14  1  0  0  0  0
  2  3  1  0  0  0  0
  2  1  1  0  0  0  0
  2 37  1  6  0  0  0
  3  4  1  0  0  0  0
  3 38  1  0  0  0  0
  3 39  1  0  0  0  0
  4  5  1  0  0  0  0
  4 40  1  0  0  0  0
  4 41  1  0  0  0  0
  5  6  2  0  0  0  0
  5  7  1  0  0  0  0
  7  8  1  0  0  0  0
  7 42  1  0  0  0  0
  8  9  1  0  0  0  0
  8 43  1  0  0  0  0
  8 44  1  0  0  0  0
  9 10  1  0  0  0  0
  9 45  1  0  0  0  0
  9 46  1  0  0  0  0
 10 11  2  0  0  0  0
 10 12  2  0  0  0  0
 10 13  1  0  0  0  0
 14 15  1  0  0  0  0
 14 32  1  0  0  0  0
 14 47  1  1  0  0  0
 15 16  1  0  0  0  0
 15 48  1  0  0  0  0
 15 49  1  0  0  0  0
 16 17  1  0  0  0  0
 16 50  1  0  0  0  0
 16 51  1  0  0  0  0
 17 18  1  0  0  0  0
 17 32  1  0  0  0  0
 17 52  1  1  0  0  0
 18 19  1  0  0  0  0
 18 29  1  0  0  0  0
 18 53  1  6  0  0  0
 19 20  1  0  0  0  0
 19 54  1  0  0  0  0
 19 55  1  0  0  0  0
 20 21  1  0  0  0  0
 20 56  1  0  0  0  0
 20 57  1  0  0  0  0
 21 22  1  0  0  0  0
 21 27  1  0  0  0  0
 21 58  1  6  0  0  0
 22 23  1  0  0  0  0
 22 59  1  0  0  0  0
 22 60  1  0  0  0  0
 23 24  1  0  0  0  0
 23 25  1  0  0  0  0
 23 61  1  6  0  0  0
 24 62  1  0  0  0  0
 25 26  1  0  0  0  0
 25 63  1  0  0  0  0
 25 64  1  0  0  0  0
 26 27  1  0  0  0  0
 26 65  1  0  0  0  0
 26 66  1  0  0  0  0
 27 28  1  6  0  0  0
 27 29  1  0  0  0  0
 28 67  1  0  0  0  0
 28 68  1  0  0  0  0
 28 69  1  0  0  0  0
 29 30  1  0  0  0  0
 29 70  1  1  0  0  0
 30 31  1  0  0  0  0
 30 71  1  0  0  0  0
 30 72  1  0  0  0  0
 31 32  1  0  0  0  0
 31 73  1  0  0  0  0
 31 74  1  0  0  0  0
 32 33  1  6  0  0  0
 33 75  1  0  0  0  0
 33 76  1  0  0  0  0
 33 77  1  0  0  0  0
M  CHG  1  13  -1
M  END
$$$$
