CHEBI:18246
 OpenBabel04252409153D

 24 24  0  0  1  0  0  0  0  0999 V2000
    1.0259   -0.1350    0.3493 H   0  0  0  0  0  0  0  0  0  0  0  0
    1.9978   -0.1503    0.3049 O   0  0  0  0  0  0  0  0  0  0  0  0
    2.4022    1.0714    0.9070 C   0  0  2  0  0  0  0  0  0  0  0  0
    1.7999    2.1410    0.1936 O   0  0  0  0  0  0  0  0  0  0  0  0
    2.1642    3.4208    0.7328 C   0  0  2  0  0  0  0  0  0  0  0  0
    1.4076    4.5203   -0.0255 C   0  0  0  0  0  0  0  0  0  0  0  0
    1.5561    5.7932    0.5944 O   0  0  0  0  0  0  0  0  0  0  0  0
    3.6863    3.6311    0.6379 C   0  0  1  0  0  0  0  0  0  0  0  0
    4.0737    4.8878    1.2052 O   0  0  0  0  0  0  0  0  0  0  0  0
    4.4068    2.4955    1.3672 C   0  0  2  0  0  0  0  0  0  0  0  0
    5.8226    2.6459    1.1826 O   0  0  0  0  0  0  0  0  0  0  0  0
    3.9363    1.1452    0.8351 C   0  0  1  0  0  0  0  0  0  0  0  0
    4.5476    0.0979    1.6024 O   0  0  0  0  0  0  0  0  0  0  0  0
    2.0537    1.0566    1.9469 H   0  0  0  0  0  0  0  0  0  0  0  0
    1.8539    3.4720    1.7856 H   0  0  0  0  0  0  0  0  0  0  0  0
    0.3386    4.2854   -0.0641 H   0  0  0  0  0  0  0  0  0  0  0  0
    1.7526    4.5901   -1.0630 H   0  0  0  0  0  0  0  0  0  0  0  0
    2.5041    5.8868    0.8319 H   0  0  0  0  0  0  0  0  0  0  0  0
    4.0029    3.6430   -0.4129 H   0  0  0  0  0  0  0  0  0  0  0  0
    5.0506    4.8379    1.2824 H   0  0  0  0  0  0  0  0  0  0  0  0
    4.2400    2.5670    2.4492 H   0  0  0  0  0  0  0  0  0  0  0  0
    6.2126    1.8064    1.5022 H   0  0  0  0  0  0  0  0  0  0  0  0
    4.2797    1.0125   -0.1986 H   0  0  0  0  0  0  0  0  0  0  0  0
    4.1281   -0.7272    1.2833 H   0  0  0  0  0  0  0  0  0  0  0  0
  1  2  1  0  0  0  0
  2  3  1  0  0  0  0
  3  4  1  0  0  0  0
  3 12  1  0  0  0  0
  3 14  1  1  0  0  0
  4  5  1  0  0  0  0
  5  6  1  0  0  0  0
  5  8  1  0  0  0  0
  5 15  1  1  0  0  0
  6  7  1  0  0  0  0
  6 16  1  0  0  0  0
  6 17  1  0  0  0  0
  7 18  1  0  0  0  0
  8  9  1  0  0  0  0
  8 10  1  0  0  0  0
  8 19  1  6  0  0  0
  9 20  1  0  0  0  0
 10 11  1  0  0  0  0
 10 12  1  0  0  0  0
 10 21  1  1  0  0  0
 11 22  1  0  0  0  0
 12 13  1  0  0  0  0
 12 23  1  6  0  0  0
 13 24  1  0  0  0  0
M  END
$$$$
