CHEBI:17257
 OpenBabel04242416063D

 58 57  0  0  0  0  0  0  0  0999 V2000
   11.6540   10.1097    5.4088 N   0  0  0  0  0  0  0  0  0  0  0  0
   11.6636   11.0605    6.5588 C   0  0  0  0  0  0  0  0  0  0  0  0
   10.9134   10.5532    7.8005 C   0  0  0  0  0  0  0  0  0  0  0  0
    9.4096   10.3387    7.6169 C   0  0  0  0  0  0  0  0  0  0  0  0
    9.0558    9.0193    6.9554 C   0  0  0  0  0  0  0  0  0  0  0  0
    9.8772    8.3043    6.3888 O   0  0  0  0  0  0  0  0  0  0  0  0
    7.7220    8.7135    7.0257 N   0  0  0  0  0  0  0  0  0  0  0  0
    7.1417    7.4945    6.4455 C   0  0  0  0  0  0  0  0  0  0  0  0
    7.7293    6.1700    6.9622 C   0  0  0  0  0  0  0  0  0  0  0  0
    8.1360    6.1663    8.7542 S   0  0  0  0  0  0  0  0  0  0  0  0
    8.9288    4.2916    9.0461 S   0  0  0  0  0  0  0  0  0  0  0  0
   10.7237    4.4434    8.6550 C   0  0  0  0  0  0  0  0  0  0  0  0
   11.1147    4.8081    7.2128 C   0  0  0  0  0  0  0  0  0  0  0  0
   12.5555    5.1416    7.0589 N   0  0  0  0  0  0  0  0  0  0  0  0
   13.5885    4.3458    7.4866 C   0  0  0  0  0  0  0  0  0  0  0  0
   13.4090    3.2077    7.8982 O   0  0  0  0  0  0  0  0  0  0  0  0
   14.9654    4.9352    7.2697 C   0  0  0  0  0  0  0  0  0  0  0  0
   15.8278    4.8703    8.5284 C   0  0  0  0  0  0  0  0  0  0  0  0
   15.2522    5.6668    9.7069 C   0  0  0  0  0  0  0  0  0  0  0  0
   16.1843    5.5987   10.8481 N   0  0  0  0  0  0  0  0  0  0  0  0
   14.9665    7.1150    9.2876 C   0  0  0  0  0  0  0  0  0  0  0  0
   13.8734    7.5183    8.9086 O   0  0  0  0  0  0  0  0  0  0  0  0
   16.0500    7.9114    9.2394 O   0  0  0  0  0  0  0  0  0  0  0  0
   10.6088    3.7733    6.1828 C   0  0  0  0  0  0  0  0  0  0  0  0
    9.4304    3.4884    6.0152 O   0  0  0  0  0  0  0  0  0  0  0  0
   11.5691    3.2162    5.4114 O   0  0  0  0  0  0  0  0  0  0  0  0
    5.6186    7.4867    6.5735 C   0  0  0  0  0  0  0  0  0  0  0  0
    4.8627    6.5966    6.2205 O   0  0  0  0  0  0  0  0  0  0  0  0
    5.1113    8.6403    7.0689 O   0  0  0  0  0  0  0  0  0  0  0  0
   13.1397   11.3202    6.9336 C   0  0  0  0  0  0  0  0  0  0  0  0
   13.5274   12.0046    7.8644 O   0  0  0  0  0  0  0  0  0  0  0  0
   13.9808   10.6735    6.0810 O   0  0  0  0  0  0  0  0  0  0  0  0
   10.8634   10.3529    4.8031 H   0  0  0  0  0  0  0  0  0  0  0  0
   11.3610    9.1821    5.7650 H   0  0  0  0  0  0  0  0  0  0  0  0
   11.2514   12.0152    6.2125 H   0  0  0  0  0  0  0  0  0  0  0  0
   11.0418   11.2993    8.5967 H   0  0  0  0  0  0  0  0  0  0  0  0
   11.3850    9.6354    8.1759 H   0  0  0  0  0  0  0  0  0  0  0  0
    8.9681   11.1566    7.0370 H   0  0  0  0  0  0  0  0  0  0  0  0
    8.9414   10.3417    8.6097 H   0  0  0  0  0  0  0  0  0  0  0  0
    7.0779    9.3174    7.5294 H   0  0  0  0  0  0  0  0  0  0  0  0
    7.3383    7.5613    5.3672 H   0  0  0  0  0  0  0  0  0  0  0  0
    8.6500    5.9902    6.4083 H   0  0  0  0  0  0  0  0  0  0  0  0
    7.0571    5.3316    6.7521 H   0  0  0  0  0  0  0  0  0  0  0  0
   11.1535    3.4727    8.9217 H   0  0  0  0  0  0  0  0  0  0  0  0
   11.1488    5.1726    9.3548 H   0  0  0  0  0  0  0  0  0  0  0  0
   10.6401    5.7521    6.9367 H   0  0  0  0  0  0  0  0  0  0  0  0
   12.7534    6.1375    6.9840 H   0  0  0  0  0  0  0  0  0  0  0  0
   14.8983    5.9611    6.8928 H   0  0  0  0  0  0  0  0  0  0  0  0
   15.4389    4.3509    6.4714 H   0  0  0  0  0  0  0  0  0  0  0  0
   16.8260    5.2501    8.2727 H   0  0  0  0  0  0  0  0  0  0  0  0
   15.9573    3.8216    8.8265 H   0  0  0  0  0  0  0  0  0  0  0  0
   14.3010    5.2322   10.0356 H   0  0  0  0  0  0  0  0  0  0  0  0
   15.7898    6.0992   11.6436 H   0  0  0  0  0  0  0  0  0  0  0  0
   16.2948    4.6285   11.1410 H   0  0  0  0  0  0  0  0  0  0  0  0
   15.7397    8.7810    8.9101 H   0  0  0  0  0  0  0  0  0  0  0  0
   12.4580    3.4771    5.7145 H   0  0  0  0  0  0  0  0  0  0  0  0
    4.1402    8.4938    7.0243 H   0  0  0  0  0  0  0  0  0  0  0  0
   13.3762   10.2274    5.4308 H   0  0  0  0  0  0  0  0  0  0  0  0
  1  2  1  0  0  0  0
  1 33  1  0  0  0  0
  1 34  1  0  0  0  0
  2  3  1  0  0  0  0
  2 30  1  0  0  0  0
  2 35  1  0  0  0  0
  3  4  1  0  0  0  0
  3 36  1  0  0  0  0
  3 37  1  0  0  0  0
  4  5  1  0  0  0  0
  4 38  1  0  0  0  0
  4 39  1  0  0  0  0
  5  6  2  0  0  0  0
  5  7  1  0  0  0  0
  7  8  1  0  0  0  0
  7 40  1  0  0  0  0
  8  9  1  0  0  0  0
  8 27  1  0  0  0  0
  8 41  1  0  0  0  0
  9 10  1  0  0  0  0
  9 42  1  0  0  0  0
  9 43  1  0  0  0  0
 10 11  1  0  0  0  0
 11 12  1  0  0  0  0
 12 13  1  0  0  0  0
 12 44  1  0  0  0  0
 12 45  1  0  0  0  0
 13 14  1  0  0  0  0
 13 24  1  0  0  0  0
 13 46  1  0  0  0  0
 14 15  1  0  0  0  0
 14 47  1  0  0  0  0
 15 16  2  0  0  0  0
 15 17  1  0  0  0  0
 17 18  1  0  0  0  0
 17 48  1  0  0  0  0
 17 49  1  0  0  0  0
 18 19  1  0  0  0  0
 18 50  1  0  0  0  0
 18 51  1  0  0  0  0
 19 20  1  0  0  0  0
 19 21  1  0  0  0  0
 19 52  1  0  0  0  0
 20 53  1  0  0  0  0
 20 54  1  0  0  0  0
 21 22  2  0  0  0  0
 21 23  1  0  0  0  0
 23 55  1  0  0  0  0
 24 25  2  0  0  0  0
 24 26  1  0  0  0  0
 26 56  1  0  0  0  0
 27 28  2  0  0  0  0
 27 29  1  0  0  0  0
 29 57  1  0  0  0  0
 30 31  2  0  0  0  0
 30 32  1  0  0  0  0
 32 58  1  0  0  0  0
M  END
$$$$
