CHEBI:16315
 OpenBabel04242414103D

 38 42  0  0  1  0  0  0  0  0999 V2000
    0.1822    0.0707    0.4007 C   0  0  0  0  0  0  0  0  0  0  0  0
    1.2134    0.8738   -0.2364 N   0  0  0  0  0  0  0  0  0  0  0  0
    2.4487    0.9610    0.5314 C   0  0  0  0  0  0  0  0  0  0  0  0
    3.1967    2.3058    0.5517 C   0  0  0  0  0  0  0  0  0  0  0  0
    2.8999    3.2915   -0.6074 C   0  0  2  0  0  0  0  0  0  0  0  0
    2.1595    4.4869   -0.1285 C   0  0  0  0  0  0  0  0  0  0  0  0
    0.8268    4.4685    0.2515 C   0  0  0  0  0  0  0  0  0  0  0  0
    0.2426    5.6885    0.5854 C   0  0  0  0  0  0  0  0  0  0  0  0
    0.9756    6.8847    0.4310 C   0  0  0  0  0  0  0  0  0  0  0  0
    2.2752    6.8637   -0.0946 C   0  0  0  0  0  0  0  0  0  0  0  0
    2.9571    8.0146   -0.3446 O   0  0  0  0  0  0  0  0  0  0  0  0
    2.8497    5.6462   -0.3905 C   0  0  0  0  0  0  0  0  0  0  0  0
    4.0138    5.4253   -1.0788 O   0  0  0  0  0  0  0  0  0  0  0  0
    4.1724    3.9860   -1.1250 C   0  0  1  0  0  0  0  0  0  0  0  0
    4.6201    3.4308   -2.4864 C   0  0  0  0  0  0  0  0  0  0  0  0
    5.5596    3.9024   -3.1252 O   0  0  0  0  0  0  0  0  0  0  0  0
    3.9436    2.2132   -3.0261 C   0  0  0  0  0  0  0  0  0  0  0  0
    2.7064    1.8791   -2.6309 C   0  0  0  0  0  0  0  0  0  0  0  0
    1.9424    2.7369   -1.6604 C   0  0  1  0  0  0  0  0  0  0  0  0
    0.7507    2.1155   -0.8597 C   0  0  1  0  0  0  0  0  0  0  0  0
    0.0964    3.1498    0.1557 C   0  0  0  0  0  0  0  0  0  0  0  0
    0.5615   -0.9349    0.6149 H   0  0  0  0  0  0  0  0  0  0  0  0
   -0.6807   -0.0563   -0.2620 H   0  0  0  0  0  0  0  0  0  0  0  0
   -0.1678    0.5061    1.3420 H   0  0  0  0  0  0  0  0  0  0  0  0
    3.1290    0.2061    0.1157 H   0  0  0  0  0  0  0  0  0  0  0  0
    2.2891    0.6593    1.5753 H   0  0  0  0  0  0  0  0  0  0  0  0
    4.2669    2.0630    0.5777 H   0  0  0  0  0  0  0  0  0  0  0  0
    2.9906    2.7920    1.5157 H   0  0  0  0  0  0  0  0  0  0  0  0
   -0.7923    5.7340    0.9159 H   0  0  0  0  0  0  0  0  0  0  0  0
    0.4937    7.8272    0.6755 H   0  0  0  0  0  0  0  0  0  0  0  0
    2.3930    8.7715   -0.1237 H   0  0  0  0  0  0  0  0  0  0  0  0
    5.0164    3.7782   -0.4522 H   0  0  0  0  0  0  0  0  0  0  0  0
    4.4840    1.6572   -3.7832 H   0  0  0  0  0  0  0  0  0  0  0  0
    2.2063    1.0177   -3.0658 H   0  0  0  0  0  0  0  0  0  0  0  0
    1.5086    3.5348   -2.2869 H   0  0  0  0  0  0  0  0  0  0  0  0
   -0.0227    1.8440   -1.5916 H   0  0  0  0  0  0  0  0  0  0  0  0
    0.0282    2.7317    1.1661 H   0  0  0  0  0  0  0  0  0  0  0  0
   -0.9323    3.3363   -0.1778 H   0  0  0  0  0  0  0  0  0  0  0  0
  1  2  1  0  0  0  0
  1 22  1  0  0  0  0
  1 23  1  0  0  0  0
  1 24  1  0  0  0  0
  2  3  1  0  0  0  0
  2 20  1  0  0  0  0
  3  4  1  0  0  0  0
  3 25  1  0  0  0  0
  3 26  1  0  0  0  0
  4  5  1  0  0  0  0
  4 27  1  0  0  0  0
  4 28  1  0  0  0  0
  5  6  1  6  0  0  0
  5 14  1  0  0  0  0
  5 19  1  0  0  0  0
  6  7  1  0  0  0  0
  6 12  2  0  0  0  0
  7  8  2  0  0  0  0
  7 21  1  0  0  0  0
  8  9  1  0  0  0  0
  8 29  1  0  0  0  0
  9 10  2  0  0  0  0
  9 30  1  0  0  0  0
 10 12  1  0  0  0  0
 10 11  1  0  0  0  0
 11 31  1  0  0  0  0
 12 13  1  0  0  0  0
 13 14  1  0  0  0  0
 14 15  1  0  0  0  0
 14 32  1  6  0  0  0
 15 17  1  0  0  0  0
 15 16  2  0  0  0  0
 17 18  2  0  0  0  0
 17 33  1  0  0  0  0
 18 19  1  0  0  0  0
 18 34  1  0  0  0  0
 19 20  1  0  0  0  0
 19 35  1  6  0  0  0
 20 21  1  0  0  0  0
 20 36  1  1  0  0  0
 21 37  1  0  0  0  0
 21 38  1  0  0  0  0
M  END
$$$$
