CHEBI:15424
 OpenBabel04242411513D

 26 27  0  0  1  0  0  0  0  0999 V2000
    4.5340   -1.1692    2.2394 N   0  0  0  0  0  0  0  0  0  0  0  0
    4.6107   -0.0495    1.3146 C   0  0  0  0  0  0  0  0  0  0  0  0
    5.5562   -0.3342    0.1500 C   0  0  0  0  0  0  0  0  0  0  0  0
    5.0338   -1.3900   -0.8323 C   0  0  1  0  0  0  0  0  0  0  0  0
    5.8678   -1.3085   -2.0310 O   0  0  0  0  0  0  0  0  0  0  0  0
    6.6239   -2.5225   -2.1967 C   0  0  1  0  0  0  0  0  0  0  0  0
    8.0885   -2.5511   -1.7460 C   0  0  0  0  0  0  0  0  0  0  0  0
    7.5405   -3.2368   -0.4917 C   0  0  0  0  0  0  0  0  0  0  0  0
    7.9209   -3.4385    0.6365 O   0  0  0  0  0  0  0  0  0  0  0  0
    6.3035   -3.4100   -1.0611 N   0  0  0  0  0  0  0  0  0  0  0  0
    5.1410   -2.8525   -0.3424 C   0  0  2  0  0  0  0  0  0  0  0  0
    3.8828   -3.6332   -0.7140 C   0  0  0  0  0  0  0  0  0  0  0  0
    2.7407   -3.2863   -0.4518 O   0  0  0  0  0  0  0  0  0  0  0  0
    4.1513   -4.8113   -1.3361 O   0  0  0  0  0  0  0  0  0  0  0  0
    3.8393   -0.9659    2.9603 H   0  0  0  0  0  0  0  0  0  0  0  0
    5.4210   -1.2688    2.7372 H   0  0  0  0  0  0  0  0  0  0  0  0
    4.9578    0.8363    1.8581 H   0  0  0  0  0  0  0  0  0  0  0  0
    3.6086    0.1763    0.9340 H   0  0  0  0  0  0  0  0  0  0  0  0
    6.5517   -0.6123    0.5186 H   0  0  0  0  0  0  0  0  0  0  0  0
    5.7086    0.6035   -0.4011 H   0  0  0  0  0  0  0  0  0  0  0  0
    4.0167   -1.1268   -1.1429 H   0  0  0  0  0  0  0  0  0  0  0  0
    6.4281   -2.9931   -3.1652 H   0  0  0  0  0  0  0  0  0  0  0  0
    8.5447   -1.5766   -1.5588 H   0  0  0  0  0  0  0  0  0  0  0  0
    8.7551   -3.1805   -2.3406 H   0  0  0  0  0  0  0  0  0  0  0  0
    5.2966   -2.9695    0.7312 H   0  0  0  0  0  0  0  0  0  0  0  0
    5.1233   -4.9295   -1.4047 H   0  0  0  0  0  0  0  0  0  0  0  0
  1  2  1  0  0  0  0
  1 15  1  0  0  0  0
  1 16  1  0  0  0  0
  2  3  1  0  0  0  0
  2 17  1  0  0  0  0
  2 18  1  0  0  0  0
  3 19  1  0  0  0  0
  3 20  1  0  0  0  0
  4  5  1  0  0  0  0
  4 11  1  0  0  0  0
  4  3  1  0  0  0  0
  4 21  1  6  0  0  0
  5  6  1  0  0  0  0
  6  7  1  0  0  0  0
  6 10  1  0  0  0  0
  6 22  1  6  0  0  0
  7  8  1  0  0  0  0
  7 23  1  0  0  0  0
  7 24  1  0  0  0  0
  8  9  2  0  0  0  0
  8 10  1  0  0  0  0
 10 11  1  0  0  0  0
 11 12  1  0  0  0  0
 11 25  1  1  0  0  0
 12 13  2  0  0  0  0
 12 14  1  0  0  0  0
 14 26  1  0  0  0  0
M  END
$$$$
