CHEBI:15380
 OpenBabel04242411483D

 95 97  0  0  1  0  0  0  0  0999 V2000
  -10.4957   -5.0450    6.3320 C   0  0  0  0  0  0  0  0  0  0  0  0
   -9.1009   -5.6301    6.0304 C   0  0  0  0  0  0  0  0  0  0  0  0
   -9.2729   -7.1327    5.7153 C   0  0  0  0  0  0  0  0  0  0  0  0
   -8.5460   -4.9188    4.7729 C   0  0  0  0  0  0  0  0  0  0  0  0
   -7.2605   -5.4002    4.4072 O   0  0  0  0  0  0  0  0  0  0  0  0
   -6.5670   -4.6820    3.1457 P   0  0  0  0  0  0  0  0  0  0  0  0
   -7.4852   -4.2371    2.0568 O   0  0  0  0  0  0  0  0  0  0  0  0
   -5.8117   -3.4538    3.8460 O   0  0  0  0  0  0  0  0  0  0  0  0
   -5.3580   -5.6135    2.7320 O   0  0  0  0  0  0  0  0  0  0  0  0
   -5.4567   -6.7868    1.6731 P   0  0  0  0  0  0  0  0  0  0  0  0
   -6.5427   -7.7842    1.9024 O   0  0  0  0  0  0  0  0  0  0  0  0
   -5.6319   -6.0404    0.2669 O   0  0  0  0  0  0  0  0  0  0  0  0
   -3.9735   -7.4018    1.5697 O   0  0  0  0  0  0  0  0  0  0  0  0
   -2.9004   -6.4689    1.4881 C   0  0  0  0  0  0  0  0  0  0  0  0
   -1.6131   -7.1521    1.0294 C   0  0  1  0  0  0  0  0  0  0  0  0
   -1.7261   -7.5026   -0.3651 O   0  0  0  0  0  0  0  0  0  0  0  0
   -0.4581   -7.2487   -0.9968 C   0  0  1  0  0  0  0  0  0  0  0  0
   -0.6708   -6.3783   -2.1374 N   0  0  0  0  0  0  0  0  0  0  0  0
   -0.3773   -6.7048   -3.4378 C   0  0  0  0  0  0  0  0  0  0  0  0
   -0.6246   -5.7121   -4.2665 N   0  0  0  0  0  0  0  0  0  0  0  0
   -1.1186   -4.7026   -3.4665 C   0  0  0  0  0  0  0  0  0  0  0  0
   -1.5621   -3.3991   -3.7489 C   0  0  0  0  0  0  0  0  0  0  0  0
   -1.5567   -2.8507   -5.0260 N   0  0  0  0  0  0  0  0  0  0  0  0
   -2.0349   -2.6403   -2.7349 N   0  0  0  0  0  0  0  0  0  0  0  0
   -2.0303   -3.1625   -1.4918 C   0  0  0  0  0  0  0  0  0  0  0  0
   -1.6005   -4.3768   -1.0983 N   0  0  0  0  0  0  0  0  0  0  0  0
   -1.1675   -5.1028   -2.1407 C   0  0  0  0  0  0  0  0  0  0  0  0
    0.5151   -6.7042    0.0583 C   0  0  2  0  0  0  0  0  0  0  0  0
    1.3577   -7.7688    0.5255 O   0  0  0  0  0  0  0  0  0  0  0  0
   -0.4149   -6.2138    1.1586 C   0  0  2  0  0  0  0  0  0  0  0  0
    0.1156   -6.2214    2.4741 O   0  0  0  0  0  0  0  0  0  0  0  0
    1.3999   -5.3365    2.8089 P   0  0  0  0  0  0  0  0  0  0  0  0
    1.5674   -4.9071    4.2228 O   0  0  0  0  0  0  0  0  0  0  0  0
    2.6345   -6.2279    2.3200 O   0  0  0  0  0  0  0  0  0  0  0  0
    1.4208   -4.1201    1.7814 O   0  0  0  0  0  0  0  0  0  0  0  0
   -8.1648   -5.4761    7.2666 C   0  0  1  0  0  0  0  0  0  0  0  0
   -6.9353   -6.1739    7.0802 O   0  0  0  0  0  0  0  0  0  0  0  0
   -7.8616   -3.9970    7.6030 C   0  0  0  0  0  0  0  0  0  0  0  0
   -6.9528   -3.3919    7.0393 O   0  0  0  0  0  0  0  0  0  0  0  0
   -8.7018   -3.4421    8.5449 N   0  0  0  0  0  0  0  0  0  0  0  0
   -8.7255   -2.0541    8.9973 C   0  0  0  0  0  0  0  0  0  0  0  0
   -7.5940   -1.1421    8.5527 C   0  0  0  0  0  0  0  0  0  0  0  0
   -7.8905    0.2743    8.9798 C   0  0  0  0  0  0  0  0  0  0  0  0
   -8.7440    0.9538    8.4175 O   0  0  0  0  0  0  0  0  0  0  0  0
   -7.1440    0.7311   10.0411 N   0  0  0  0  0  0  0  0  0  0  0  0
   -7.1977    2.1280   10.4490 C   0  0  0  0  0  0  0  0  0  0  0  0
   -6.4764    3.0329    9.4469 C   0  0  0  0  0  0  0  0  0  0  0  0
   -6.3195    4.7298   10.0787 S   0  0  0  0  0  0  0  0  0  0  0  0
   -5.7410    5.5164    8.6157 C   0  0  0  0  0  0  0  0  0  0  0  0
   -5.4424    4.8891    7.6047 O   0  0  0  0  0  0  0  0  0  0  0  0
   -5.6328    7.0212    8.6915 C   0  0  0  0  0  0  0  0  0  0  0  0
   -6.1810    7.6402    7.4120 C   0  0  0  0  0  0  0  0  0  0  0  0
   -7.6673    7.4016    7.3259 C   0  0  0  0  0  0  0  0  0  0  0  0
   -8.4595    7.8055    8.1608 O   0  0  0  0  0  0  0  0  0  0  0  0
   -8.0477    6.6702    6.2589 O   0  0  0  0  0  0  0  0  0  0  0  0
  -11.1940   -5.2485    5.5118 H   0  0  0  0  0  0  0  0  0  0  0  0
  -10.4609   -3.9580    6.4598 H   0  0  0  0  0  0  0  0  0  0  0  0
  -10.9203   -5.4804    7.2432 H   0  0  0  0  0  0  0  0  0  0  0  0
   -9.9517   -7.2818    4.8676 H   0  0  0  0  0  0  0  0  0  0  0  0
   -9.6949   -7.6666    6.5742 H   0  0  0  0  0  0  0  0  0  0  0  0
   -8.3218   -7.6111    5.4589 H   0  0  0  0  0  0  0  0  0  0  0  0
   -8.4856   -3.8363    4.9322 H   0  0  0  0  0  0  0  0  0  0  0  0
   -9.2259   -5.0812    3.9276 H   0  0  0  0  0  0  0  0  0  0  0  0
   -6.4070   -2.7115    4.0526 H   0  0  0  0  0  0  0  0  0  0  0  0
   -6.4945   -6.2606   -0.1338 H   0  0  0  0  0  0  0  0  0  0  0  0
   -2.7625   -6.0257    2.4792 H   0  0  0  0  0  0  0  0  0  0  0  0
   -3.1725   -5.6786    0.7810 H   0  0  0  0  0  0  0  0  0  0  0  0
   -1.4609   -8.0800    1.5942 H   0  0  0  0  0  0  0  0  0  0  0  0
   -0.0999   -8.2087   -1.3882 H   0  0  0  0  0  0  0  0  0  0  0  0
    0.0148   -7.6738   -3.7226 H   0  0  0  0  0  0  0  0  0  0  0  0
   -1.5434   -3.5535   -5.7569 H   0  0  0  0  0  0  0  0  0  0  0  0
   -2.2295   -2.1001   -5.1107 H   0  0  0  0  0  0  0  0  0  0  0  0
   -2.4205   -2.5198   -0.7076 H   0  0  0  0  0  0  0  0  0  0  0  0
    1.1748   -5.9215   -0.3297 H   0  0  0  0  0  0  0  0  0  0  0  0
    2.0210   -7.3540    1.1179 H   0  0  0  0  0  0  0  0  0  0  0  0
   -0.7331   -5.1911    0.9471 H   0  0  0  0  0  0  0  0  0  0  0  0
    3.1231   -6.5510    3.1050 H   0  0  0  0  0  0  0  0  0  0  0  0
    1.8757   -3.3455    2.1624 H   0  0  0  0  0  0  0  0  0  0  0  0
   -8.6381   -5.9377    8.1419 H   0  0  0  0  0  0  0  0  0  0  0  0
   -6.4854   -5.7378    6.3287 H   0  0  0  0  0  0  0  0  0  0  0  0
   -9.4292   -4.0346    8.9267 H   0  0  0  0  0  0  0  0  0  0  0  0
   -8.7500   -2.0982   10.0932 H   0  0  0  0  0  0  0  0  0  0  0  0
   -9.6950   -1.6487    8.6858 H   0  0  0  0  0  0  0  0  0  0  0  0
   -7.4987   -1.1162    7.4620 H   0  0  0  0  0  0  0  0  0  0  0  0
   -6.6348   -1.4810    8.9592 H   0  0  0  0  0  0  0  0  0  0  0  0
   -6.3955    0.1553   10.4063 H   0  0  0  0  0  0  0  0  0  0  0  0
   -6.7360    2.1808   11.4408 H   0  0  0  0  0  0  0  0  0  0  0  0
   -8.2504    2.4216   10.5406 H   0  0  0  0  0  0  0  0  0  0  0  0
   -7.0242    3.0444    8.4987 H   0  0  0  0  0  0  0  0  0  0  0  0
   -5.4720    2.6430    9.2477 H   0  0  0  0  0  0  0  0  0  0  0  0
   -4.5722    7.2728    8.8050 H   0  0  0  0  0  0  0  0  0  0  0  0
   -6.1643    7.4132    9.5651 H   0  0  0  0  0  0  0  0  0  0  0  0
   -5.6722    7.2420    6.5276 H   0  0  0  0  0  0  0  0  0  0  0  0
   -6.0193    8.7235    7.4063 H   0  0  0  0  0  0  0  0  0  0  0  0
   -7.3181    6.3384    5.7001 H   0  0  0  0  0  0  0  0  0  0  0  0
  1  2  1  0  0  0  0
  1 56  1  0  0  0  0
  1 57  1  0  0  0  0
  1 58  1  0  0  0  0
  2  3  1  0  0  0  0
  2  4  1  0  0  0  0
  2 36  1  0  0  0  0
  3 59  1  0  0  0  0
  3 60  1  0  0  0  0
  3 61  1  0  0  0  0
  4  5  1  0  0  0  0
  4 62  1  0  0  0  0
  4 63  1  0  0  0  0
  5  6  1  0  0  0  0
  6  7  2  0  0  0  0
  6  8  1  0  0  0  0
  6  9  1  0  0  0  0
  8 64  1  0  0  0  0
  9 10  1  0  0  0  0
 10 11  2  0  0  0  0
 10 12  1  0  0  0  0
 10 13  1  0  0  0  0
 12 65  1  0  0  0  0
 13 14  1  0  0  0  0
 14 66  1  0  0  0  0
 14 67  1  0  0  0  0
 15 16  1  0  0  0  0
 15 30  1  0  0  0  0
 15 14  1  0  0  0  0
 15 68  1  1  0  0  0
 16 17  1  0  0  0  0
 17 28  1  0  0  0  0
 17 18  1  0  0  0  0
 17 69  1  6  0  0  0
 18 19  1  0  0  0  0
 18 27  1  0  0  0  0
 19 20  2  0  0  0  0
 19 70  1  0  0  0  0
 20 21  1  0  0  0  0
 21 22  1  0  0  0  0
 21 27  2  0  0  0  0
 22 23  1  0  0  0  0
 22 24  2  0  0  0  0
 23 71  1  0  0  0  0
 23 72  1  0  0  0  0
 24 25  1  0  0  0  0
 25 26  2  0  0  0  0
 25 73  1  0  0  0  0
 26 27  1  0  0  0  0
 28 29  1  0  0  0  0
 28 30  1  0  0  0  0
 28 74  1  6  0  0  0
 29 75  1  0  0  0  0
 30 31  1  0  0  0  0
 30 76  1  6  0  0  0
 31 32  1  0  0  0  0
 32 33  2  0  0  0  0
 32 34  1  0  0  0  0
 32 35  1  0  0  0  0
 34 77  1  0  0  0  0
 35 78  1  0  0  0  0
 36 37  1  0  0  0  0
 36 38  1  0  0  0  0
 36 79  1  1  0  0  0
 37 80  1  0  0  0  0
 38 39  2  0  0  0  0
 38 40  1  0  0  0  0
 40 41  1  0  0  0  0
 40 81  1  0  0  0  0
 41 42  1  0  0  0  0
 41 82  1  0  0  0  0
 41 83  1  0  0  0  0
 42 43  1  0  0  0  0
 42 84  1  0  0  0  0
 42 85  1  0  0  0  0
 43 44  2  0  0  0  0
 43 45  1  0  0  0  0
 45 46  1  0  0  0  0
 45 86  1  0  0  0  0
 46 47  1  0  0  0  0
 46 87  1  0  0  0  0
 46 88  1  0  0  0  0
 47 48  1  0  0  0  0
 47 89  1  0  0  0  0
 47 90  1  0  0  0  0
 48 49  1  0  0  0  0
 49 50  2  0  0  0  0
 49 51  1  0  0  0  0
 51 52  1  0  0  0  0
 51 91  1  0  0  0  0
 51 92  1  0  0  0  0
 52 53  1  0  0  0  0
 52 93  1  0  0  0  0
 52 94  1  0  0  0  0
 53 54  2  0  0  0  0
 53 55  1  0  0  0  0
 55 95  1  0  0  0  0
M  END
$$$$
