CHEBI:16029
 OpenBabel04242413393D

 26 26  0  0  1  0  0  0  0  0999 V2000
    3.0897    0.2825    1.4195 C   0  0  0  0  0  0  0  0  0  0  0  0
    2.5205    0.2032    0.0728 N   0  0  0  0  0  0  0  0  0  0  0  0
    2.2890    1.5440   -0.4644 C   0  0  0  0  0  0  0  0  0  0  0  0
    3.3146   -0.7079   -0.8195 C   0  0  1  0  0  0  0  0  0  0  0  0
    2.6094   -0.9210   -2.1738 C   0  0  0  0  0  0  0  0  0  0  0  0
    3.0430   -2.1399   -2.9258 C   0  0  0  0  0  0  0  0  0  0  0  0
    2.5947   -2.5875   -4.1500 C   0  0  0  0  0  0  0  0  0  0  0  0
    3.3141   -3.7196   -4.4115 N   0  0  0  0  0  0  0  0  0  0  0  0
    4.1572   -3.9226   -3.3566 C   0  0  0  0  0  0  0  0  0  0  0  0
    4.0234   -2.9847   -2.4437 N   0  0  0  0  0  0  0  0  0  0  0  0
    4.7795   -0.2511   -1.0374 C   0  0  0  0  0  0  0  0  0  0  0  0
    5.2090    0.8842   -0.8776 O   0  0  0  0  0  0  0  0  0  0  0  0
    5.6139   -1.2495   -1.4209 O   0  0  0  0  0  0  0  0  0  0  0  0
    2.4117    0.8289    2.0854 H   0  0  0  0  0  0  0  0  0  0  0  0
    4.0614    0.7860    1.4450 H   0  0  0  0  0  0  0  0  0  0  0  0
    3.2057   -0.7175    1.8514 H   0  0  0  0  0  0  0  0  0  0  0  0
    1.6131    2.0990    0.1970 H   0  0  0  0  0  0  0  0  0  0  0  0
    1.7858    1.5067   -1.4353 H   0  0  0  0  0  0  0  0  0  0  0  0
    3.2005    2.1382   -0.5692 H   0  0  0  0  0  0  0  0  0  0  0  0
    3.3582   -1.6686   -0.2877 H   0  0  0  0  0  0  0  0  0  0  0  0
    2.7641   -0.0502   -2.8232 H   0  0  0  0  0  0  0  0  0  0  0  0
    1.5278   -1.0169   -2.0074 H   0  0  0  0  0  0  0  0  0  0  0  0
    1.8529   -2.2050   -4.8375 H   0  0  0  0  0  0  0  0  0  0  0  0
    3.2432   -4.3012   -5.2359 H   0  0  0  0  0  0  0  0  0  0  0  0
    4.8426   -4.7597   -3.3162 H   0  0  0  0  0  0  0  0  0  0  0  0
    5.1275   -2.0833   -1.6463 H   0  0  0  0  0  0  0  0  0  0  0  0
  1  2  1  0  0  0  0
  1 14  1  0  0  0  0
  1 15  1  0  0  0  0
  1 16  1  0  0  0  0
  2  3  1  0  0  0  0
  2  4  1  0  0  0  0
  3 17  1  0  0  0  0
  3 18  1  0  0  0  0
  3 19  1  0  0  0  0
  4  5  1  0  0  0  0
  4 11  1  0  0  0  0
  4 20  1  1  0  0  0
  5  6  1  0  0  0  0
  5 21  1  0  0  0  0
  5 22  1  0  0  0  0
  6  7  2  0  0  0  0
  6 10  1  0  0  0  0
  7  8  1  0  0  0  0
  7 23  1  0  0  0  0
  8  9  1  0  0  0  0
  8 24  1  0  0  0  0
  9 10  2  0  0  0  0
  9 25  1  0  0  0  0
 11 12  2  0  0  0  0
 11 13  1  0  0  0  0
 13 26  1  0  0  0  0
M  END
$$$$
