CHEBI:17064
 OpenBabel04242415483D

 16 16  0  0  0  0  0  0  0  0999 V2000
    2.3345   -0.0112   -0.1702 N   0  0  0  0  0  0  0  0  0  0  0  0
    0.9461    0.0064   -0.0078 C   0  0  0  0  0  0  0  0  0  0  0  0
    0.2316   -1.1948    0.0522 C   0  0  0  0  0  0  0  0  0  0  0  0
   -1.1665   -1.1973    0.0855 C   0  0  0  0  0  0  0  0  0  0  0  0
   -1.8570    0.0173    0.0123 C   0  0  0  0  0  0  0  0  0  0  0  0
   -3.3235    0.0240    0.0412 N   0  3  0  0  0  0  0  0  0  0  0  0
   -3.8992   -1.0369    0.3230 O   0  0  0  0  0  0  0  0  0  0  0  0
   -3.9005    1.0909   -0.2139 O   0  5  0  0  0  0  0  0  0  0  0  0
   -1.1588    1.2234   -0.1081 C   0  0  0  0  0  0  0  0  0  0  0  0
    0.2393    1.2066   -0.1384 C   0  0  0  0  0  0  0  0  0  0  0  0
    2.7906   -0.8261    0.2286 H   0  0  0  0  0  0  0  0  0  0  0  0
    2.7955    0.8533    0.0969 H   0  0  0  0  0  0  0  0  0  0  0  0
    0.7614   -2.1445    0.0731 H   0  0  0  0  0  0  0  0  0  0  0  0
   -1.6941   -2.1464    0.1503 H   0  0  0  0  0  0  0  0  0  0  0  0
   -1.6798    2.1746   -0.1924 H   0  0  0  0  0  0  0  0  0  0  0  0
    0.7754    2.1443   -0.2658 H   0  0  0  0  0  0  0  0  0  0  0  0
  1  2  1  0  0  0  0
  1 11  1  0  0  0  0
  1 12  1  0  0  0  0
  2  3  1  0  0  0  0
  2 10  2  0  0  0  0
  3  4  2  0  0  0  0
  3 13  1  0  0  0  0
  4  5  1  0  0  0  0
  4 14  1  0  0  0  0
  5  6  1  0  0  0  0
  5  9  2  0  0  0  0
  6  7  2  0  0  0  0
  6  8  1  0  0  0  0
  9 10  1  0  0  0  0
  9 15  1  0  0  0  0
 10 16  1  0  0  0  0
M  CHG  2   6   1   8  -1
M  END
$$$$
