CHEBI:15639
 OpenBabel04242412583D

 58 60  0  0  1  0  0  0  0  0999 V2000
    7.2286   -3.1048    3.0856 N   0  0  0  0  0  0  0  0  0  0  0  0
    7.9418   -2.6287    4.0544 C   0  0  0  0  0  0  0  0  0  0  0  0
    8.6421   -1.4451    4.0422 N   0  0  0  0  0  0  0  0  0  0  0  0
    9.3023   -0.8421    5.1507 C   0  0  0  0  0  0  0  0  0  0  0  0
   10.1118    0.2505    5.0323 C   0  0  0  0  0  0  0  0  0  0  0  0
   10.7579    0.8593    6.0771 N   0  0  0  0  0  0  0  0  0  0  0  0
   10.5545    0.4225    7.2724 C   0  0  0  0  0  0  0  0  0  0  0  0
   11.1490    1.0164    8.3356 N   0  0  0  0  0  0  0  0  0  0  0  0
    9.7459   -0.6272    7.5359 N   0  0  0  0  0  0  0  0  0  0  0  0
    9.0893   -1.3177    6.5614 C   0  0  0  0  0  0  0  0  0  0  0  0
    8.3644   -2.2566    6.8808 O   0  0  0  0  0  0  0  0  0  0  0  0
   10.2974    0.8269    3.7763 N   0  0  0  0  0  0  0  0  0  0  0  0
    9.9785    0.0714    2.5719 C   0  0  0  0  0  0  0  0  0  0  0  0
    8.6546   -0.7040    2.7417 C   0  0  2  0  0  0  0  0  0  0  0  0
    7.4022    0.1960    2.5596 C   0  0  0  0  0  0  0  0  0  0  0  0
    7.2611    1.2837    3.5495 N   0  0  0  0  0  0  0  0  0  0  0  0
    6.5734    1.0339    4.7452 C   0  0  0  0  0  0  0  0  0  0  0  0
    6.9741    1.7091    5.9090 C   0  0  0  0  0  0  0  0  0  0  0  0
    6.3460    1.4787    7.1370 C   0  0  0  0  0  0  0  0  0  0  0  0
    5.2726    0.5903    7.2141 C   0  0  0  0  0  0  0  0  0  0  0  0
    4.6664    0.3115    8.5449 C   0  0  0  0  0  0  0  0  0  0  0  0
    4.7720    1.1159    9.4632 O   0  0  0  0  0  0  0  0  0  0  0  0
    4.0417   -0.9056    8.6758 N   0  0  0  0  0  0  0  0  0  0  0  0
    3.4669   -1.3694    9.9392 C   0  0  1  0  0  0  0  0  0  0  0  0
    1.9545   -1.1220    9.9383 C   0  0  0  0  0  0  0  0  0  0  0  0
    1.2929   -1.3322   11.3002 C   0  0  0  0  0  0  0  0  0  0  0  0
    1.0555   -2.7833   11.6074 C   0  0  0  0  0  0  0  0  0  0  0  0
    0.7298   -3.6513   10.8133 O   0  0  0  0  0  0  0  0  0  0  0  0
    1.2215   -3.0728   12.9090 O   0  0  0  0  0  0  0  0  0  0  0  0
    3.8309   -2.8487   10.0235 C   0  0  0  0  0  0  0  0  0  0  0  0
    3.8796   -3.6307    9.0849 O   0  0  0  0  0  0  0  0  0  0  0  0
    4.1480   -3.2538   11.2681 O   0  0  0  0  0  0  0  0  0  0  0  0
    4.7936   -0.0049    6.0440 C   0  0  0  0  0  0  0  0  0  0  0  0
    5.4355    0.2266    4.8228 C   0  0  0  0  0  0  0  0  0  0  0  0
    6.8424   -4.0101    3.3828 H   0  0  0  0  0  0  0  0  0  0  0  0
    8.0496   -3.2303    4.9666 H   0  0  0  0  0  0  0  0  0  0  0  0
   11.5603    1.9103    8.0831 H   0  0  0  0  0  0  0  0  0  0  0  0
   10.5985    1.0735    9.1826 H   0  0  0  0  0  0  0  0  0  0  0  0
    9.6219   -0.9603    8.4769 H   0  0  0  0  0  0  0  0  0  0  0  0
   11.1724    1.3460    3.7653 H   0  0  0  0  0  0  0  0  0  0  0  0
   10.7943   -0.6373    2.3822 H   0  0  0  0  0  0  0  0  0  0  0  0
    9.9289    0.7490    1.7130 H   0  0  0  0  0  0  0  0  0  0  0  0
    8.6403   -1.4265    1.9137 H   0  0  0  0  0  0  0  0  0  0  0  0
    7.4813    0.6817    1.5789 H   0  0  0  0  0  0  0  0  0  0  0  0
    6.5036   -0.4238    2.4945 H   0  0  0  0  0  0  0  0  0  0  0  0
    8.1792    1.6933    3.7510 H   0  0  0  0  0  0  0  0  0  0  0  0
    7.8157    2.3979    5.8747 H   0  0  0  0  0  0  0  0  0  0  0  0
    6.7063    1.9845    8.0294 H   0  0  0  0  0  0  0  0  0  0  0  0
    4.1284   -1.6013    7.9411 H   0  0  0  0  0  0  0  0  0  0  0  0
    3.9540   -0.8321   10.7607 H   0  0  0  0  0  0  0  0  0  0  0  0
    1.4703   -1.7440    9.1745 H   0  0  0  0  0  0  0  0  0  0  0  0
    1.7748   -0.0797    9.6421 H   0  0  0  0  0  0  0  0  0  0  0  0
    0.3119   -0.8429   11.3131 H   0  0  0  0  0  0  0  0  0  0  0  0
    1.9014   -0.8777   12.0894 H   0  0  0  0  0  0  0  0  0  0  0  0
    1.0424   -4.0346   12.9666 H   0  0  0  0  0  0  0  0  0  0  0  0
    4.4242   -4.1870   11.1442 H   0  0  0  0  0  0  0  0  0  0  0  0
    3.9130   -0.6401    6.0500 H   0  0  0  0  0  0  0  0  0  0  0  0
    5.0202   -0.2429    3.9366 H   0  0  0  0  0  0  0  0  0  0  0  0
  1  2  2  0  0  0  0
  1 35  1  0  0  0  0
  2  3  1  0  0  0  0
  2 36  1  0  0  0  0
  3  4  1  0  0  0  0
  3 14  1  0  0  0  0
  4  5  2  0  0  0  0
  4 10  1  0  0  0  0
  5  6  1  0  0  0  0
  5 12  1  0  0  0  0
  6  7  2  0  0  0  0
  7  8  1  0  0  0  0
  7  9  1  0  0  0  0
  8 37  1  0  0  0  0
  8 38  1  0  0  0  0
  9 10  1  0  0  0  0
  9 39  1  0  0  0  0
 10 11  2  0  0  0  0
 12 13  1  0  0  0  0
 12 40  1  0  0  0  0
 13 14  1  0  0  0  0
 13 41  1  0  0  0  0
 13 42  1  0  0  0  0
 14 15  1  0  0  0  0
 14 43  1  6  0  0  0
 15 16  1  0  0  0  0
 15 44  1  0  0  0  0
 15 45  1  0  0  0  0
 16 17  1  0  0  0  0
 16 46  1  0  0  0  0
 17 18  1  0  0  0  0
 17 34  2  0  0  0  0
 18 19  2  0  0  0  0
 18 47  1  0  0  0  0
 19 20  1  0  0  0  0
 19 48  1  0  0  0  0
 20 21  1  0  0  0  0
 20 33  2  0  0  0  0
 21 22  2  0  0  0  0
 21 23  1  0  0  0  0
 23 24  1  0  0  0  0
 23 49  1  0  0  0  0
 24 25  1  0  0  0  0
 24 30  1  0  0  0  0
 24 50  1  1  0  0  0
 25 26  1  0  0  0  0
 25 51  1  0  0  0  0
 25 52  1  0  0  0  0
 26 27  1  0  0  0  0
 26 53  1  0  0  0  0
 26 54  1  0  0  0  0
 27 28  2  0  0  0  0
 27 29  1  0  0  0  0
 29 55  1  0  0  0  0
 30 31  2  0  0  0  0
 30 32  1  0  0  0  0
 32 56  1  0  0  0  0
 33 34  1  0  0  0  0
 33 57  1  0  0  0  0
 34 58  1  0  0  0  0
M  END
$$$$
