CHEBI:9023
 OpenBabel04242411163D

 38 40  0  0  1  0  0  0  0  0999 V2000
    1.8347   -0.5588    0.1748 C   0  0  0  0  0  0  0  0  0  0  0  0
    2.5503    0.0846    1.1019 C   0  0  0  0  0  0  0  0  0  0  0  0
    3.0463   -0.5563    2.3570 C   0  0  0  0  0  0  0  0  0  0  0  0
    3.1646   -1.7454    2.5689 O   0  0  0  0  0  0  0  0  0  0  0  0
    3.3775    0.4603    3.2181 O   0  0  0  0  0  0  0  0  0  0  0  0
    2.7839    1.6544    2.7012 C   0  0  2  0  0  0  0  0  0  0  0  0
    3.4120    2.9722    3.1900 C   0  0  1  0  0  0  0  0  0  0  0  0
    3.2893    3.1142    4.6964 C   0  0  0  0  0  0  0  0  0  0  0  0
    4.4646    2.6734    5.5216 C   0  0  0  0  0  0  0  0  0  0  0  0
    2.1883    3.6451    5.2533 C   0  0  0  0  0  0  0  0  0  0  0  0
    1.0212    4.1533    4.4647 C   0  0  0  0  0  0  0  0  0  0  0  0
    1.2632    4.3633    2.9542 C   0  0  1  0  0  0  0  0  0  0  0  0
    0.7536    5.6418    2.5593 O   0  0  0  0  0  0  0  0  0  0  0  0
    2.7396    4.1887    2.4631 C   0  0  1  0  0  0  0  0  0  0  0  0
    3.5695    5.4700    2.7414 C   0  0  0  0  0  0  0  0  0  0  0  0
    2.7514    3.9729    0.9138 C   0  0  0  0  0  0  0  0  0  0  0  0
    2.2194    2.6052    0.4554 C   0  0  0  0  0  0  0  0  0  0  0  0
    2.9552    1.5084    1.2028 C   0  0  1  0  0  0  0  0  0  0  0  0
    1.6024   -1.6154    0.2852 H   0  0  0  0  0  0  0  0  0  0  0  0
    1.4596   -0.0538   -0.7086 H   0  0  0  0  0  0  0  0  0  0  0  0
    1.7223    1.6286    2.9922 H   0  0  0  0  0  0  0  0  0  0  0  0
    4.4824    2.9613    2.9391 H   0  0  0  0  0  0  0  0  0  0  0  0
    4.6990    1.6213    5.3387 H   0  0  0  0  0  0  0  0  0  0  0  0
    4.2809    2.7954    6.5943 H   0  0  0  0  0  0  0  0  0  0  0  0
    5.3436    3.2761    5.2682 H   0  0  0  0  0  0  0  0  0  0  0  0
    2.1100    3.7274    6.3357 H   0  0  0  0  0  0  0  0  0  0  0  0
    0.6664    5.0823    4.9258 H   0  0  0  0  0  0  0  0  0  0  0  0
    0.2025    3.4308    4.5867 H   0  0  0  0  0  0  0  0  0  0  0  0
    0.6232    3.6416    2.4365 H   0  0  0  0  0  0  0  0  0  0  0  0
    1.1420    6.3127    3.1487 H   0  0  0  0  0  0  0  0  0  0  0  0
    3.5104    5.7829    3.7886 H   0  0  0  0  0  0  0  0  0  0  0  0
    3.2290    6.3105    2.1263 H   0  0  0  0  0  0  0  0  0  0  0  0
    4.6278    5.3089    2.5041 H   0  0  0  0  0  0  0  0  0  0  0  0
    3.7844    4.0676    0.5508 H   0  0  0  0  0  0  0  0  0  0  0  0
    2.1798    4.7647    0.4141 H   0  0  0  0  0  0  0  0  0  0  0  0
    2.3797    2.4983   -0.6241 H   0  0  0  0  0  0  0  0  0  0  0  0
    1.1381    2.5362    0.6162 H   0  0  0  0  0  0  0  0  0  0  0  0
    4.0222    1.5570    0.9374 H   0  0  0  0  0  0  0  0  0  0  0  0
  1  2  2  0  0  0  0
  1 19  1  0  0  0  0
  1 20  1  0  0  0  0
  2  3  1  0  0  0  0
  2 18  1  0  0  0  0
  3  5  1  0  0  0  0
  3  4  2  0  0  0  0
  5  6  1  0  0  0  0
  6  7  1  0  0  0  0
  6 18  1  0  0  0  0
  6 21  1  6  0  0  0
  7  8  1  0  0  0  0
  7 14  1  0  0  0  0
  7 22  1  1  0  0  0
  8 10  2  0  0  0  0
  8  9  1  0  0  0  0
  9 23  1  0  0  0  0
  9 24  1  0  0  0  0
  9 25  1  0  0  0  0
 10 11  1  0  0  0  0
 10 26  1  0  0  0  0
 11 12  1  0  0  0  0
 11 27  1  0  0  0  0
 11 28  1  0  0  0  0
 12 14  1  0  0  0  0
 12 13  1  0  0  0  0
 12 29  1  6  0  0  0
 13 30  1  0  0  0  0
 14 16  1  0  0  0  0
 14 15  1  1  0  0  0
 15 31  1  0  0  0  0
 15 32  1  0  0  0  0
 15 33  1  0  0  0  0
 16 17  1  0  0  0  0
 16 34  1  0  0  0  0
 16 35  1  0  0  0  0
 17 18  1  0  0  0  0
 17 36  1  0  0  0  0
 17 37  1  0  0  0  0
 18 38  1  1  0  0  0
M  END
$$$$
