CHEBI:17032
 OpenBabel04242415433D

 22 21  0  0  1  0  0  0  0  0999 V2000
    6.9569    1.9677   -0.7381 O   0  0  0  0  0  0  0  0  0  0  0  0
    6.3082    1.1997   -1.4194 C   0  0  0  0  0  0  0  0  0  0  0  0
    4.9804    1.2718   -1.5600 O   0  0  0  0  0  0  0  0  0  0  0  0
    6.9136    0.0417   -2.2101 C   0  0  0  0  0  0  0  0  0  0  0  0
    6.7105   -0.0677   -3.4145 O   0  0  0  0  0  0  0  0  0  0  0  0
    7.6821   -0.9719   -1.4110 C   0  0  0  0  0  0  0  0  0  0  0  0
    6.7443   -1.9897   -0.7810 C   0  0  2  0  0  0  0  0  0  0  0  0
    5.9779   -1.3276    0.2380 O   0  0  0  0  0  0  0  0  0  0  0  0
    5.7656   -2.6970   -1.7429 C   0  0  2  0  0  0  0  0  0  0  0  0
    5.0156   -3.6358   -0.9412 O   0  0  0  0  0  0  0  0  0  0  0  0
    6.4389   -3.4613   -2.8847 C   0  0  0  0  0  0  0  0  0  0  0  0
    7.2987   -4.4583   -2.3295 O   0  0  0  0  0  0  0  0  0  0  0  0
    4.7114    2.0257   -0.9971 H   0  0  0  0  0  0  0  0  0  0  0  0
    8.2591   -0.4423   -0.6445 H   0  0  0  0  0  0  0  0  0  0  0  0
    8.4052   -1.4571   -2.0752 H   0  0  0  0  0  0  0  0  0  0  0  0
    7.3447   -2.7396   -0.2519 H   0  0  0  0  0  0  0  0  0  0  0  0
    5.2824   -1.9709    0.4919 H   0  0  0  0  0  0  0  0  0  0  0  0
    5.0335   -1.9860   -2.1393 H   0  0  0  0  0  0  0  0  0  0  0  0
    5.5872   -4.4284   -0.8748 H   0  0  0  0  0  0  0  0  0  0  0  0
    7.0250   -2.8059   -3.5336 H   0  0  0  0  0  0  0  0  0  0  0  0
    5.6841   -3.9794   -3.4852 H   0  0  0  0  0  0  0  0  0  0  0  0
    7.6806   -4.9466   -3.0820 H   0  0  0  0  0  0  0  0  0  0  0  0
  1  2  2  0  0  0  0
  2  3  1  0  0  0  0
  2  4  1  0  0  0  0
  3 13  1  0  0  0  0
  4  5  2  0  0  0  0
  4  6  1  0  0  0  0
  6 14  1  0  0  0  0
  6 15  1  0  0  0  0
  7  8  1  0  0  0  0
  7  6  1  0  0  0  0
  7 16  1  6  0  0  0
  8 17  1  0  0  0  0
  9 11  1  0  0  0  0
  9 10  1  0  0  0  0
  9  7  1  0  0  0  0
  9 18  1  6  0  0  0
 10 19  1  0  0  0  0
 11 12  1  0  0  0  0
 11 20  1  0  0  0  0
 11 21  1  0  0  0  0
 12 22  1  0  0  0  0
M  END
$$$$
