CHEBI:15687
 OpenBabel04242413043D

 14 13  0  0  1  0  0  0  0  0999 V2000
    2.8079   -2.0796    2.9750 C   0  0  0  0  0  0  0  0  0  0  0  0
    2.7095   -1.6523    1.5341 C   0  0  0  0  0  0  0  0  0  0  0  0
    2.2947   -2.4221    0.6665 O   0  0  0  0  0  0  0  0  0  0  0  0
    3.2030   -0.2409    1.2088 C   0  0  2  0  0  0  0  0  0  0  0  0
    2.5548    0.3145   -0.0499 C   0  0  0  0  0  0  0  0  0  0  0  0
    4.6165   -0.2526    1.0554 O   0  0  0  0  0  0  0  0  0  0  0  0
    2.4546   -3.1093    3.0785 H   0  0  0  0  0  0  0  0  0  0  0  0
    2.1829   -1.4297    3.5929 H   0  0  0  0  0  0  0  0  0  0  0  0
    3.8485   -2.0273    3.3033 H   0  0  0  0  0  0  0  0  0  0  0  0
    2.9561    0.4132    2.0518 H   0  0  0  0  0  0  0  0  0  0  0  0
    2.8170   -0.2833   -0.9299 H   0  0  0  0  0  0  0  0  0  0  0  0
    2.9081    1.3329   -0.2436 H   0  0  0  0  0  0  0  0  0  0  0  0
    1.4641    0.3307    0.0404 H   0  0  0  0  0  0  0  0  0  0  0  0
    4.8135   -0.7904    0.2657 H   0  0  0  0  0  0  0  0  0  0  0  0
  1  2  1  0  0  0  0
  1  7  1  0  0  0  0
  1  8  1  0  0  0  0
  1  9  1  0  0  0  0
  2  3  2  0  0  0  0
  4  6  1  0  0  0  0
  4  5  1  0  0  0  0
  4  2  1  0  0  0  0
  4 10  1  1  0  0  0
  5 11  1  0  0  0  0
  5 12  1  0  0  0  0
  5 13  1  0  0  0  0
  6 14  1  0  0  0  0
M  END
$$$$
