CHEBI:15442
 OpenBabel04242411543D

 91 91  0  0  1  0  0  0  0  0999 V2000
   18.2832  -13.5239  -11.0013 C   0  0  0  0  0  0  0  0  0  0  0  0
   16.9115  -13.0326  -11.3862 C   0  0  0  0  0  0  0  0  0  0  0  0
   16.7252  -12.8299  -12.8648 C   0  0  0  0  0  0  0  0  0  0  0  0
   15.9653  -12.8329  -10.4470 C   0  0  0  0  0  0  0  0  0  0  0  0
   14.5484  -12.3693  -10.6599 C   0  0  0  0  0  0  0  0  0  0  0  0
   14.0180  -11.4511   -9.5449 C   0  0  0  0  0  0  0  0  0  0  0  0
   14.6403  -10.0647   -9.4514 C   0  0  0  0  0  0  0  0  0  0  0  0
   14.5112   -9.2171  -10.6878 C   0  0  0  0  0  0  0  0  0  0  0  0
   15.1930   -9.6547   -8.2911 C   0  0  0  0  0  0  0  0  0  0  0  0
   15.7774   -8.3071   -7.9414 C   0  0  0  0  0  0  0  0  0  0  0  0
   15.0885   -7.7343   -6.6891 C   0  0  0  0  0  0  0  0  0  0  0  0
   15.5153   -6.3376   -6.2803 C   0  0  0  0  0  0  0  0  0  0  0  0
   14.4683   -5.2660   -6.4322 C   0  0  0  0  0  0  0  0  0  0  0  0
   16.7170   -6.0380   -5.7493 C   0  0  0  0  0  0  0  0  0  0  0  0
   17.8426   -6.9475   -5.5338 C   0  0  1  0  0  0  0  0  0  0  0  0
   18.9757   -6.4937   -4.6604 C   0  0  2  0  0  0  0  0  0  0  0  0
   20.3585   -6.5645   -5.2156 C   0  0  0  0  0  0  0  0  0  0  0  0
   20.4033   -5.7468   -6.3696 O   0  0  0  0  0  0  0  0  0  0  0  0
   21.0014   -4.2665   -6.2532 P   0  0  0  0  0  0  0  0  0  0  0  0
   22.4573   -4.1862   -5.9350 O   0  0  0  0  0  0  0  0  0  0  0  0
   20.6711   -3.7184   -7.7261 O   0  0  0  0  0  0  0  0  0  0  0  0
   20.0000   -3.4332   -5.3599 O   0  0  0  0  0  0  0  0  0  0  0  0
   20.1578   -2.9717   -3.8603 P   0  0  0  0  0  0  0  0  0  0  0  0
   19.0165   -2.2629   -3.2222 O   0  0  0  0  0  0  0  0  0  0  0  0
   20.7492   -4.1945   -3.0279 O   0  0  0  0  0  0  0  0  0  0  0  0
   21.4496   -2.0310   -3.8732 O   0  0  0  0  0  0  0  0  0  0  0  0
   18.1046   -7.6712   -4.2161 C   0  0  2  0  0  0  0  0  0  0  0  0
   18.4855   -9.1195   -4.4115 C   0  0  0  0  0  0  0  0  0  0  0  0
   17.2337   -7.4251   -2.9810 C   0  0  0  0  0  0  0  0  0  0  0  0
   18.0313   -7.1074   -1.7012 C   0  0  0  0  0  0  0  0  0  0  0  0
   18.7210   -8.2730   -1.0297 C   0  0  0  0  0  0  0  0  0  0  0  0
   20.0207   -8.6273   -1.1259 C   0  0  0  0  0  0  0  0  0  0  0  0
   21.0020   -7.9312   -2.0295 C   0  0  0  0  0  0  0  0  0  0  0  0
   20.5994   -9.7639   -0.2891 C   0  0  0  0  0  0  0  0  0  0  0  0
   21.4424  -10.7572   -1.1040 C   0  0  0  0  0  0  0  0  0  0  0  0
   22.2056  -11.7700   -0.2902 C   0  0  0  0  0  0  0  0  0  0  0  0
   23.4160  -11.5889    0.2771 C   0  0  0  0  0  0  0  0  0  0  0  0
   24.1379  -10.2702    0.3447 C   0  0  0  0  0  0  0  0  0  0  0  0
   24.1715  -12.7428    0.8818 C   0  0  0  0  0  0  0  0  0  0  0  0
   19.0461  -12.8051  -11.3172 H   0  0  0  0  0  0  0  0  0  0  0  0
   18.4897  -14.4852  -11.4839 H   0  0  0  0  0  0  0  0  0  0  0  0
   18.3868  -13.6672   -9.9207 H   0  0  0  0  0  0  0  0  0  0  0  0
   15.7037  -12.5643  -13.1444 H   0  0  0  0  0  0  0  0  0  0  0  0
   16.9736  -13.7505  -13.4042 H   0  0  0  0  0  0  0  0  0  0  0  0
   17.3869  -12.0336  -13.2209 H   0  0  0  0  0  0  0  0  0  0  0  0
   16.2193  -13.0474   -9.4089 H   0  0  0  0  0  0  0  0  0  0  0  0
   13.9137  -13.2647  -10.6787 H   0  0  0  0  0  0  0  0  0  0  0  0
   14.4186  -11.8751  -11.6263 H   0  0  0  0  0  0  0  0  0  0  0  0
   14.1046  -11.9772   -8.5846 H   0  0  0  0  0  0  0  0  0  0  0  0
   12.9399  -11.3145   -9.7051 H   0  0  0  0  0  0  0  0  0  0  0  0
   13.4810   -9.2439  -11.0583 H   0  0  0  0  0  0  0  0  0  0  0  0
   15.1718   -9.5925  -11.4759 H   0  0  0  0  0  0  0  0  0  0  0  0
   14.7601   -8.1669  -10.5243 H   0  0  0  0  0  0  0  0  0  0  0  0
   15.2313  -10.3671   -7.4659 H   0  0  0  0  0  0  0  0  0  0  0  0
   15.7056   -7.5913   -8.7641 H   0  0  0  0  0  0  0  0  0  0  0  0
   16.8443   -8.4616   -7.7559 H   0  0  0  0  0  0  0  0  0  0  0  0
   15.2427   -8.4105   -5.8378 H   0  0  0  0  0  0  0  0  0  0  0  0
   14.0033   -7.7305   -6.8616 H   0  0  0  0  0  0  0  0  0  0  0  0
   13.5870   -5.5133   -5.8312 H   0  0  0  0  0  0  0  0  0  0  0  0
   14.1660   -5.1723   -7.4797 H   0  0  0  0  0  0  0  0  0  0  0  0
   14.8259   -4.2850   -6.1001 H   0  0  0  0  0  0  0  0  0  0  0  0
   16.9020   -4.9981   -5.4778 H   0  0  0  0  0  0  0  0  0  0  0  0
   18.1605   -7.4404   -6.4494 H   0  0  0  0  0  0  0  0  0  0  0  0
   18.8392   -5.5644   -4.1187 H   0  0  0  0  0  0  0  0  0  0  0  0
   21.1022   -6.2344   -4.4859 H   0  0  0  0  0  0  0  0  0  0  0  0
   20.6367   -7.5770   -5.5163 H   0  0  0  0  0  0  0  0  0  0  0  0
   21.2435   -4.1376   -8.3922 H   0  0  0  0  0  0  0  0  0  0  0  0
   21.6640   -3.9988   -2.7485 H   0  0  0  0  0  0  0  0  0  0  0  0
   21.1849   -1.0907   -3.8734 H   0  0  0  0  0  0  0  0  0  0  0  0
   19.3152   -9.2499   -5.1105 H   0  0  0  0  0  0  0  0  0  0  0  0
   17.6263   -9.6661   -4.8178 H   0  0  0  0  0  0  0  0  0  0  0  0
   18.7618   -9.6034   -3.4734 H   0  0  0  0  0  0  0  0  0  0  0  0
   16.5737   -6.5679   -3.1620 H   0  0  0  0  0  0  0  0  0  0  0  0
   16.5712   -8.2829   -2.8140 H   0  0  0  0  0  0  0  0  0  0  0  0
   17.3236   -6.7047   -0.9632 H   0  0  0  0  0  0  0  0  0  0  0  0
   18.7315   -6.2856   -1.8791 H   0  0  0  0  0  0  0  0  0  0  0  0
   18.0801   -8.8331   -0.3491 H   0  0  0  0  0  0  0  0  0  0  0  0
   20.6785   -6.9335   -2.3213 H   0  0  0  0  0  0  0  0  0  0  0  0
   21.1481   -8.5206   -2.9419 H   0  0  0  0  0  0  0  0  0  0  0  0
   21.9717   -7.8115   -1.5374 H   0  0  0  0  0  0  0  0  0  0  0  0
   19.8009  -10.3106    0.2284 H   0  0  0  0  0  0  0  0  0  0  0  0
   21.2136   -9.3082    0.4973 H   0  0  0  0  0  0  0  0  0  0  0  0
   22.1654  -10.2351   -1.7411 H   0  0  0  0  0  0  0  0  0  0  0  0
   20.7855  -11.2995   -1.7967 H   0  0  0  0  0  0  0  0  0  0  0  0
   21.7601  -12.7639   -0.2681 H   0  0  0  0  0  0  0  0  0  0  0  0
   24.9105  -10.2173   -0.4279 H   0  0  0  0  0  0  0  0  0  0  0  0
   24.6198  -10.1523    1.3222 H   0  0  0  0  0  0  0  0  0  0  0  0
   23.4698   -9.4144    0.2223 H   0  0  0  0  0  0  0  0  0  0  0  0
   23.6922  -13.7054    0.6757 H   0  0  0  0  0  0  0  0  0  0  0  0
   24.2520  -12.6251    1.9666 H   0  0  0  0  0  0  0  0  0  0  0  0
   25.1828  -12.7880    0.4614 H   0  0  0  0  0  0  0  0  0  0  0  0
  1  2  1  0  0  0  0
  1 40  1  0  0  0  0
  1 41  1  0  0  0  0
  1 42  1  0  0  0  0
  2  3  1  0  0  0  0
  2  4  2  0  0  0  0
  3 43  1  0  0  0  0
  3 44  1  0  0  0  0
  3 45  1  0  0  0  0
  4  5  1  0  0  0  0
  4 46  1  0  0  0  0
  5  6  1  0  0  0  0
  5 47  1  0  0  0  0
  5 48  1  0  0  0  0
  6  7  1  0  0  0  0
  6 49  1  0  0  0  0
  6 50  1  0  0  0  0
  7  8  1  0  0  0  0
  7  9  2  0  0  0  0
  8 51  1  0  0  0  0
  8 52  1  0  0  0  0
  8 53  1  0  0  0  0
  9 10  1  0  0  0  0
  9 54  1  0  0  0  0
 10 11  1  0  0  0  0
 10 55  1  0  0  0  0
 10 56  1  0  0  0  0
 11 12  1  0  0  0  0
 11 57  1  0  0  0  0
 11 58  1  0  0  0  0
 12 13  1  0  0  0  0
 12 14  2  0  0  0  0
 13 59  1  0  0  0  0
 13 60  1  0  0  0  0
 13 61  1  0  0  0  0
 14 62  1  0  0  0  0
 15 16  1  0  0  0  0
 15 27  1  0  0  0  0
 15 14  1  0  0  0  0
 15 63  1  6  0  0  0
 16 27  1  0  0  0  0
 16 17  1  0  0  0  0
 16 64  1  1  0  0  0
 17 18  1  0  0  0  0
 17 65  1  0  0  0  0
 17 66  1  0  0  0  0
 18 19  1  0  0  0  0
 19 20  2  0  0  0  0
 19 21  1  0  0  0  0
 19 22  1  0  0  0  0
 21 67  1  0  0  0  0
 22 23  1  0  0  0  0
 23 24  2  0  0  0  0
 23 25  1  0  0  0  0
 23 26  1  0  0  0  0
 25 68  1  0  0  0  0
 26 69  1  0  0  0  0
 27 29  1  1  0  0  0
 27 28  1  0  0  0  0
 28 70  1  0  0  0  0
 28 71  1  0  0  0  0
 28 72  1  0  0  0  0
 29 30  1  0  0  0  0
 29 73  1  0  0  0  0
 29 74  1  0  0  0  0
 30 31  1  0  0  0  0
 30 75  1  0  0  0  0
 30 76  1  0  0  0  0
 31 32  2  0  0  0  0
 31 77  1  0  0  0  0
 32 33  1  0  0  0  0
 32 34  1  0  0  0  0
 33 78  1  0  0  0  0
 33 79  1  0  0  0  0
 33 80  1  0  0  0  0
 34 35  1  0  0  0  0
 34 81  1  0  0  0  0
 34 82  1  0  0  0  0
 35 36  1  0  0  0  0
 35 83  1  0  0  0  0
 35 84  1  0  0  0  0
 36 37  2  0  0  0  0
 36 85  1  0  0  0  0
 37 38  1  0  0  0  0
 37 39  1  0  0  0  0
 38 86  1  0  0  0  0
 38 87  1  0  0  0  0
 38 88  1  0  0  0  0
 39 89  1  0  0  0  0
 39 90  1  0  0  0  0
 39 91  1  0  0  0  0
M  END
$$$$
