CHEBI:16643
 OpenBabel04242414583D

 20 19  0  0  1  0  0  0  0  0999 V2000
    6.3050    4.3930    6.8256 C   0  0  0  0  0  0  0  0  0  0  0  0
    6.7060    3.0434    5.6879 S   0  0  0  0  0  0  0  0  0  0  0  0
    5.2109    3.1094    4.6455 C   0  0  0  0  0  0  0  0  0  0  0  0
    5.2100    2.0342    3.5517 C   0  0  0  0  0  0  0  0  0  0  0  0
    6.1912    2.2328    2.3867 C   0  0  2  0  0  0  0  0  0  0  0  0
    7.6269    2.1255    2.7763 N   0  0  0  0  0  0  0  0  0  0  0  0
    5.9732    3.5816    1.6802 C   0  0  0  0  0  0  0  0  0  0  0  0
    4.8877    4.0723    1.4132 O   0  0  0  0  0  0  0  0  0  0  0  0
    7.1592    4.1675    1.3705 O   0  0  0  0  0  0  0  0  0  0  0  0
    7.1249    4.5161    7.5382 H   0  0  0  0  0  0  0  0  0  0  0  0
    5.3925    4.1633    7.3815 H   0  0  0  0  0  0  0  0  0  0  0  0
    6.1783    5.3292    6.2760 H   0  0  0  0  0  0  0  0  0  0  0  0
    5.1181    4.1099    4.2129 H   0  0  0  0  0  0  0  0  0  0  0  0
    4.3455    2.9450    5.2965 H   0  0  0  0  0  0  0  0  0  0  0  0
    4.1963    2.0108    3.1285 H   0  0  0  0  0  0  0  0  0  0  0  0
    5.3661    1.0441    3.9997 H   0  0  0  0  0  0  0  0  0  0  0  0
    6.0103    1.4625    1.6274 H   0  0  0  0  0  0  0  0  0  0  0  0
    7.7322    2.5847    3.6955 H   0  0  0  0  0  0  0  0  0  0  0  0
    7.8120    1.1430    3.0030 H   0  0  0  0  0  0  0  0  0  0  0  0
    7.8548    3.5478    1.7115 H   0  0  0  0  0  0  0  0  0  0  0  0
  1  2  1  0  0  0  0
  1 10  1  0  0  0  0
  1 11  1  0  0  0  0
  1 12  1  0  0  0  0
  2  3  1  0  0  0  0
  3  4  1  0  0  0  0
  3 13  1  0  0  0  0
  3 14  1  0  0  0  0
  4 15  1  0  0  0  0
  4 16  1  0  0  0  0
  5  7  1  0  0  0  0
  5  6  1  0  0  0  0
  5  4  1  0  0  0  0
  5 17  1  6  0  0  0
  6 18  1  0  0  0  0
  6 19  1  0  0  0  0
  7  8  2  0  0  0  0
  7  9  1  0  0  0  0
  9 20  1  0  0  0  0
M  END
$$$$
