CHEBI:15698
 OpenBabel04242413073D

 29 30  0  0  1  0  0  0  0  0999 V2000
    1.1214   -2.0084    0.3054 N   0  0  0  0  0  0  0  0  0  0  0  0
    2.4437   -1.6630    0.2703 C   0  0  0  0  0  0  0  0  0  0  0  0
    3.3822   -2.4495   -0.5520 C   0  0  0  0  0  0  0  0  0  0  0  0
    4.6466   -2.0317   -0.5509 C   0  0  0  0  0  0  0  0  0  0  0  0
    5.0308   -0.9284    0.1773 N   0  0  0  0  0  0  0  0  0  0  0  0
    6.4134   -0.4843    0.2321 C   0  0  1  0  0  0  0  0  0  0  0  0
    7.1733   -1.0292    1.4357 C   0  0  0  0  0  0  0  0  0  0  0  0
    8.5994   -1.0323    0.9408 C   0  0  2  0  0  0  0  0  0  0  0  0
    9.1733    0.2637    1.1192 O   0  0  0  0  0  0  0  0  0  0  0  0
    8.4503   -1.3681   -0.5384 C   0  0  1  0  0  0  0  0  0  0  0  0
    8.4927   -2.8727   -0.8158 C   0  0  0  0  0  0  0  0  0  0  0  0
    8.2962   -3.1116   -2.2099 O   0  0  0  0  0  0  0  0  0  0  0  0
    7.1435   -0.8883   -0.9465 O   0  0  0  0  0  0  0  0  0  0  0  0
    4.1168   -0.2355    0.9805 C   0  0  0  0  0  0  0  0  0  0  0  0
    4.4811    0.7115    1.6749 O   0  0  0  0  0  0  0  0  0  0  0  0
    2.8027   -0.6376    0.9757 N   0  0  0  0  0  0  0  0  0  0  0  0
    0.7229   -2.3926   -0.5421 H   0  0  0  0  0  0  0  0  0  0  0  0
    0.5490   -1.2768    0.7173 H   0  0  0  0  0  0  0  0  0  0  0  0
    3.0374   -3.3130   -1.1012 H   0  0  0  0  0  0  0  0  0  0  0  0
    5.4037   -2.5532   -1.1256 H   0  0  0  0  0  0  0  0  0  0  0  0
    6.4355    0.6127    0.2405 H   0  0  0  0  0  0  0  0  0  0  0  0
    6.8544   -2.0541    1.6604 H   0  0  0  0  0  0  0  0  0  0  0  0
    7.0147   -0.4170    2.3287 H   0  0  0  0  0  0  0  0  0  0  0  0
    9.2341   -1.7392    1.4826 H   0  0  0  0  0  0  0  0  0  0  0  0
    8.7724    0.8885    0.4888 H   0  0  0  0  0  0  0  0  0  0  0  0
    9.1872   -0.8502   -1.1620 H   0  0  0  0  0  0  0  0  0  0  0  0
    7.6978   -3.4040   -0.2835 H   0  0  0  0  0  0  0  0  0  0  0  0
    9.4570   -3.3014   -0.5282 H   0  0  0  0  0  0  0  0  0  0  0  0
    7.6304   -2.4624   -2.5088 H   0  0  0  0  0  0  0  0  0  0  0  0
  1  2  1  0  0  0  0
  1 17  1  0  0  0  0
  1 18  1  0  0  0  0
  2  3  1  0  0  0  0
  2 16  2  0  0  0  0
  3  4  2  0  0  0  0
  3 19  1  0  0  0  0
  4  5  1  0  0  0  0
  4 20  1  0  0  0  0
  5  6  1  0  0  0  0
  5 14  1  0  0  0  0
  6  7  1  0  0  0  0
  6 13  1  0  0  0  0
  6 21  1  1  0  0  0
  7  8  1  0  0  0  0
  7 22  1  0  0  0  0
  7 23  1  0  0  0  0
  8  9  1  0  0  0  0
  8 10  1  0  0  0  0
  8 24  1  1  0  0  0
  9 25  1  0  0  0  0
 10 11  1  0  0  0  0
 10 13  1  0  0  0  0
 10 26  1  6  0  0  0
 11 12  1  0  0  0  0
 11 27  1  0  0  0  0
 11 28  1  0  0  0  0
 12 29  1  0  0  0  0
 14 15  2  0  0  0  0
 14 16  1  0  0  0  0
M  END
$$$$
