CHEBI:17136
 OpenBabel04242415553D

 20 21  0  0  0  0  0  0  0  0999 V2000
    0.9877   -0.1499    0.0460 O   0  0  0  0  0  0  0  0  0  0  0  0
    2.2114   -0.1191    0.0470 C   0  0  0  0  0  0  0  0  0  0  0  0
    2.9779   -1.3778    0.0488 C   0  0  0  0  0  0  0  0  0  0  0  0
    4.3138   -1.3987    0.0490 C   0  0  0  0  0  0  0  0  0  0  0  0
    5.0268   -2.5841    0.0510 O   0  0  0  0  0  0  0  0  0  0  0  0
    5.0945   -0.1252    0.0471 C   0  0  0  0  0  0  0  0  0  0  0  0
    6.3227   -0.1112    0.0458 O   0  0  0  0  0  0  0  0  0  0  0  0
    4.3532    1.1501    0.0471 C   0  0  0  0  0  0  0  0  0  0  0  0
    5.0370    2.3737    0.0475 C   0  0  0  0  0  0  0  0  0  0  0  0
    6.4029    2.4700    0.0480 O   0  0  0  0  0  0  0  0  0  0  0  0
    4.3360    3.5785    0.0476 C   0  0  0  0  0  0  0  0  0  0  0  0
    2.9420    3.5735    0.0470 C   0  0  0  0  0  0  0  0  0  0  0  0
    2.2513    2.3615    0.0466 C   0  0  0  0  0  0  0  0  0  0  0  0
    2.9587    1.1507    0.0468 C   0  0  0  0  0  0  0  0  0  0  0  0
    2.3798   -2.2811    0.0500 H   0  0  0  0  0  0  0  0  0  0  0  0
    4.4142   -3.3380    0.0530 H   0  0  0  0  0  0  0  0  0  0  0  0
    6.7798    1.5600    0.0473 H   0  0  0  0  0  0  0  0  0  0  0  0
    4.8795    4.5206    0.0480 H   0  0  0  0  0  0  0  0  0  0  0  0
    2.3951    4.5138    0.0470 H   0  0  0  0  0  0  0  0  0  0  0  0
    1.1622    2.3641    0.0463 H   0  0  0  0  0  0  0  0  0  0  0  0
  1  2  2  0  0  0  0
  2  3  1  0  0  0  0
  2 14  1  0  0  0  0
  3  4  2  0  0  0  0
  3 15  1  0  0  0  0
  4  5  1  0  0  0  0
  4  6  1  0  0  0  0
  5 16  1  0  0  0  0
  6  7  2  0  0  0  0
  6  8  1  0  0  0  0
  8  9  1  0  0  0  0
  8 14  2  0  0  0  0
  9 10  1  0  0  0  0
  9 11  2  0  0  0  0
 10 17  1  0  0  0  0
 11 12  1  0  0  0  0
 11 18  1  0  0  0  0
 12 13  2  0  0  0  0
 12 19  1  0  0  0  0
 13 14  1  0  0  0  0
 13 20  1  0  0  0  0
M  END
$$$$
