CHEBI:16265
 OpenBabel04242414053D

 13 12  0  0  0  0  0  0  0  0999 V2000
    3.3501   -1.9015    2.7847 O   0  0  0  0  0  0  0  0  0  0  0  0
    2.5769   -1.0185    2.4157 C   0  0  0  0  0  0  0  0  0  0  0  0
    3.0453    0.2426    1.7365 C   0  0  0  0  0  0  0  0  0  0  0  0
    4.5123    0.1507    1.3443 C   0  0  0  0  0  0  0  0  0  0  0  0
    5.4170    0.4290    2.5178 C   0  0  0  0  0  0  0  0  0  0  0  0
    6.0055    1.4885    2.6753 O   0  0  0  0  0  0  0  0  0  0  0  0
    5.5124   -0.5920    3.3950 O   0  0  0  0  0  0  0  0  0  0  0  0
    1.4920   -1.0905    2.6041 H   0  0  0  0  0  0  0  0  0  0  0  0
    2.8516    1.0861    2.4067 H   0  0  0  0  0  0  0  0  0  0  0  0
    2.4333    0.3646    0.8364 H   0  0  0  0  0  0  0  0  0  0  0  0
    4.7320    0.9095    0.5833 H   0  0  0  0  0  0  0  0  0  0  0  0
    4.7793   -0.8157    0.9022 H   0  0  0  0  0  0  0  0  0  0  0  0
    4.9256   -1.3602    3.1854 H   0  0  0  0  0  0  0  0  0  0  0  0
  1  2  2  0  0  0  0
  2  3  1  0  0  0  0
  2  8  1  0  0  0  0
  3  4  1  0  0  0  0
  3  9  1  0  0  0  0
  3 10  1  0  0  0  0
  4  5  1  0  0  0  0
  4 11  1  0  0  0  0
  4 12  1  0  0  0  0
  5  6  2  0  0  0  0
  5  7  1  0  0  0  0
  7 13  1  0  0  0  0
M  END
$$$$
