CHEBI:15942
 OpenBabel04242413313D

 17 17  0  0  0  0  0  0  0  0999 V2000
    2.4029   -0.1090    0.1629 N   0  0  0  0  0  0  0  0  0  0  0  0
    1.0049   -0.0005    0.0140 C   0  0  0  0  0  0  0  0  0  0  0  0
    0.2530   -1.1859    0.0217 C   0  0  0  0  0  0  0  0  0  0  0  0
   -1.1457   -1.1609   -0.0039 C   0  0  0  0  0  0  0  0  0  0  0  0
   -1.8224    0.0557   -0.0105 C   0  0  0  0  0  0  0  0  0  0  0  0
   -1.0983    1.2452    0.0191 C   0  0  0  0  0  0  0  0  0  0  0  0
    0.3063    1.2172    0.0525 C   0  0  0  0  0  0  0  0  0  0  0  0
    1.1470    2.8295    0.0108 S   0  0  0  0  0  0  0  0  0  0  0  0
    0.9613    3.3141    1.3751 O   0  0  0  0  0  0  0  0  0  0  0  0
    2.5250    2.4961   -0.3577 O   0  0  0  0  0  0  0  0  0  0  0  0
    0.4013    3.5511   -1.0189 O   0  5  0  0  0  0  0  0  0  0  0  0
    2.8105   -0.8308   -0.4158 H   0  0  0  0  0  0  0  0  0  0  0  0
    2.8358    0.8133   -0.0417 H   0  0  0  0  0  0  0  0  0  0  0  0
    0.7638   -2.1440    0.0617 H   0  0  0  0  0  0  0  0  0  0  0  0
   -1.7024   -2.0930   -0.0054 H   0  0  0  0  0  0  0  0  0  0  0  0
   -2.9073    0.0839   -0.0310 H   0  0  0  0  0  0  0  0  0  0  0  0
   -1.6098    2.2052    0.0154 H   0  0  0  0  0  0  0  0  0  0  0  0
  1  2  1  0  0  0  0
  1 12  1  0  0  0  0
  1 13  1  0  0  0  0
  2  3  1  0  0  0  0
  2  7  2  0  0  0  0
  3  4  2  0  0  0  0
  3 14  1  0  0  0  0
  4  5  1  0  0  0  0
  4 15  1  0  0  0  0
  5  6  2  0  0  0  0
  5 16  1  0  0  0  0
  6  7  1  0  0  0  0
  6 17  1  0  0  0  0
  7  8  1  0  0  0  0
  8  9  2  0  0  0  0
  8 10  2  0  0  0  0
  8 11  1  0  0  0  0
M  CHG  1  11  -1
M  END
$$$$
