CHEBI:5000
 OpenBabel04242411033D

 32 32  0  0  0  0  0  0  0  0999 V2000
    3.0067   -0.2899   -1.2255 C   0  0  0  0  0  0  0  0  0  0  0  0
    4.4635    0.1472   -1.1544 C   0  0  0  0  0  0  0  0  0  0  0  0
    4.7372    0.7211    0.1629 N   0  0  0  0  0  0  0  0  0  0  0  0
    6.1488    1.1115    0.3575 C   0  0  0  0  0  0  0  0  0  0  0  0
    6.5255    2.2972   -0.5400 C   0  0  0  0  0  0  0  0  0  0  0  0
    6.3440    1.4633    1.8558 C   0  0  0  0  0  0  0  0  0  0  0  0
    7.7572    1.8373    2.2459 C   0  0  0  0  0  0  0  0  0  0  0  0
    8.0402    3.1311    2.7039 C   0  0  0  0  0  0  0  0  0  0  0  0
    9.3394    3.4900    3.0610 C   0  0  0  0  0  0  0  0  0  0  0  0
   10.3730    2.5596    2.9658 C   0  0  0  0  0  0  0  0  0  0  0  0
   10.1157    1.2568    2.5154 C   0  0  0  0  0  0  0  0  0  0  0  0
   11.2226    0.2379    2.4052 C   0  0  0  0  0  0  0  0  0  0  0  0
   12.4487    0.7203    2.7527 F   0  0  0  0  0  0  0  0  0  0  0  0
   11.0118   -0.8491    3.1986 F   0  0  0  0  0  0  0  0  0  0  0  0
   11.3595   -0.2466    1.1391 F   0  0  0  0  0  0  0  0  0  0  0  0
    8.8010    0.9047    2.1627 C   0  0  0  0  0  0  0  0  0  0  0  0
    2.7870   -0.7098   -2.2125 H   0  0  0  0  0  0  0  0  0  0  0  0
    2.3318    0.5576   -1.0631 H   0  0  0  0  0  0  0  0  0  0  0  0
    2.7828   -1.0560   -0.4756 H   0  0  0  0  0  0  0  0  0  0  0  0
    4.6353    0.8806   -1.9478 H   0  0  0  0  0  0  0  0  0  0  0  0
    5.1078   -0.7195   -1.3390 H   0  0  0  0  0  0  0  0  0  0  0  0
    4.4739    0.0409    0.8767 H   0  0  0  0  0  0  0  0  0  0  0  0
    6.7945    0.2593    0.1106 H   0  0  0  0  0  0  0  0  0  0  0  0
    5.8741    3.1586   -0.3564 H   0  0  0  0  0  0  0  0  0  0  0  0
    6.4580    2.0387   -1.6013 H   0  0  0  0  0  0  0  0  0  0  0  0
    7.5591    2.6143   -0.3685 H   0  0  0  0  0  0  0  0  0  0  0  0
    6.0498    0.6072    2.4790 H   0  0  0  0  0  0  0  0  0  0  0  0
    5.6602    2.2783    2.1303 H   0  0  0  0  0  0  0  0  0  0  0  0
    7.2472    3.8726    2.7816 H   0  0  0  0  0  0  0  0  0  0  0  0
    9.5451    4.4984    3.4126 H   0  0  0  0  0  0  0  0  0  0  0  0
   11.3824    2.8568    3.2461 H   0  0  0  0  0  0  0  0  0  0  0  0
    8.5957   -0.1091    1.8193 H   0  0  0  0  0  0  0  0  0  0  0  0
  1  2  1  0  0  0  0
  1 17  1  0  0  0  0
  1 18  1  0  0  0  0
  1 19  1  0  0  0  0
  2  3  1  0  0  0  0
  2 20  1  0  0  0  0
  2 21  1  0  0  0  0
  3  4  1  0  0  0  0
  3 22  1  0  0  0  0
  4  5  1  0  0  0  0
  4  6  1  0  0  0  0
  4 23  1  0  0  0  0
  5 24  1  0  0  0  0
  5 25  1  0  0  0  0
  5 26  1  0  0  0  0
  6  7  1  0  0  0  0
  6 27  1  0  0  0  0
  6 28  1  0  0  0  0
  7  8  1  0  0  0  0
  7 16  2  0  0  0  0
  8  9  2  0  0  0  0
  8 29  1  0  0  0  0
  9 10  1  0  0  0  0
  9 30  1  0  0  0  0
 10 11  2  0  0  0  0
 10 31  1  0  0  0  0
 11 12  1  0  0  0  0
 11 16  1  0  0  0  0
 12 13  1  0  0  0  0
 12 14  1  0  0  0  0
 12 15  1  0  0  0  0
 16 32  1  0  0  0  0
M  END
$$$$
