CHEBI:15826
 OpenBabel04242413193D

 54 57  0  0  1  0  0  0  0  0999 V2000
    3.0973   -2.5892    1.7821 C   0  0  0  0  0  0  0  0  0  0  0  0
    4.0494   -1.4620    2.1056 C   0  0  0  0  0  0  0  0  0  0  0  0
    5.1244   -1.6991    2.6535 O   0  0  0  0  0  0  0  0  0  0  0  0
    3.6050   -0.0604    1.6985 C   0  0  1  0  0  0  0  0  0  0  0  0
    2.4540    0.4276    2.5896 C   0  0  2  0  0  0  0  0  0  0  0  0
    1.2102    0.0849    1.9863 O   0  0  0  0  0  0  0  0  0  0  0  0
    2.5919    1.9530    2.6783 C   0  0  0  0  0  0  0  0  0  0  0  0
    3.7143    2.3337    1.6897 C   0  0  1  0  0  0  0  0  0  0  0  0
    3.1654    2.6474    0.2645 C   0  0  2  0  0  0  0  0  0  0  0  0
    2.3382    3.9536    0.2689 C   0  0  0  0  0  0  0  0  0  0  0  0
    1.8399    4.3406   -1.1219 C   0  0  0  0  0  0  0  0  0  0  0  0
    3.0273    4.4364   -2.0405 C   0  0  0  0  0  0  0  0  0  0  0  0
    3.3920    5.6329   -2.5343 C   0  0  0  0  0  0  0  0  0  0  0  0
    4.7074    5.8190   -3.1868 C   0  0  0  0  0  0  0  0  0  0  0  0
    4.9797    6.8939   -3.7139 O   0  0  0  0  0  0  0  0  0  0  0  0
    5.7048    4.6980   -3.0581 C   0  0  0  0  0  0  0  0  0  0  0  0
    4.9907    3.3670   -3.2283 C   0  0  0  0  0  0  0  0  0  0  0  0
    3.8244    3.1391   -2.2181 C   0  0  1  0  0  0  0  0  0  0  0  0
    2.9284    2.0479   -2.8588 C   0  0  0  0  0  0  0  0  0  0  0  0
    4.3221    2.7079   -0.7868 C   0  0  1  0  0  0  0  0  0  0  0  0
    5.0713    1.3625   -0.7779 C   0  0  0  0  0  0  0  0  0  0  0  0
    5.6582    1.0526    0.5944 C   0  0  0  0  0  0  0  0  0  0  0  0
    4.6485    1.0898    1.7522 C   0  0  2  0  0  0  0  0  0  0  0  0
    5.4573    1.1234    3.0747 C   0  0  0  0  0  0  0  0  0  0  0  0
    3.5489   -3.5438    2.0665 H   0  0  0  0  0  0  0  0  0  0  0  0
    2.9001   -2.6048    0.7071 H   0  0  0  0  0  0  0  0  0  0  0  0
    2.1650   -2.4659    2.3369 H   0  0  0  0  0  0  0  0  0  0  0  0
    3.2435   -0.1745    0.6686 H   0  0  0  0  0  0  0  0  0  0  0  0
    2.4756   -0.0238    3.5879 H   0  0  0  0  0  0  0  0  0  0  0  0
    0.5019    0.4439    2.5507 H   0  0  0  0  0  0  0  0  0  0  0  0
    2.9108    2.2241    3.6926 H   0  0  0  0  0  0  0  0  0  0  0  0
    1.6477    2.4713    2.4993 H   0  0  0  0  0  0  0  0  0  0  0  0
    4.2395    3.2269    2.0526 H   0  0  0  0  0  0  0  0  0  0  0  0
    2.4796    1.8420   -0.0254 H   0  0  0  0  0  0  0  0  0  0  0  0
    2.9479    4.7704    0.6781 H   0  0  0  0  0  0  0  0  0  0  0  0
    1.4656    3.8588    0.9225 H   0  0  0  0  0  0  0  0  0  0  0  0
    1.3035    5.2950   -1.0557 H   0  0  0  0  0  0  0  0  0  0  0  0
    1.1157    3.6088   -1.4948 H   0  0  0  0  0  0  0  0  0  0  0  0
    2.8128    6.5378   -2.3882 H   0  0  0  0  0  0  0  0  0  0  0  0
    6.2049    4.7753   -2.0879 H   0  0  0  0  0  0  0  0  0  0  0  0
    6.4587    4.8099   -3.8450 H   0  0  0  0  0  0  0  0  0  0  0  0
    5.7230    2.5555   -3.1906 H   0  0  0  0  0  0  0  0  0  0  0  0
    4.5866    3.3437   -4.2515 H   0  0  0  0  0  0  0  0  0  0  0  0
    2.4403    2.4236   -3.7666 H   0  0  0  0  0  0  0  0  0  0  0  0
    2.1367    1.6958   -2.1921 H   0  0  0  0  0  0  0  0  0  0  0  0
    3.5184    1.1716   -3.1509 H   0  0  0  0  0  0  0  0  0  0  0  0
    5.0292    3.4774   -0.4419 H   0  0  0  0  0  0  0  0  0  0  0  0
    5.9006    1.3726   -1.4909 H   0  0  0  0  0  0  0  0  0  0  0  0
    4.4083    0.5473   -1.0864 H   0  0  0  0  0  0  0  0  0  0  0  0
    6.4551    1.7841    0.7868 H   0  0  0  0  0  0  0  0  0  0  0  0
    6.1490    0.0719    0.5574 H   0  0  0  0  0  0  0  0  0  0  0  0
    5.9327    2.1017    3.2130 H   0  0  0  0  0  0  0  0  0  0  0  0
    6.2666    0.3859    3.0728 H   0  0  0  0  0  0  0  0  0  0  0  0
    4.8384    0.9303    3.9562 H   0  0  0  0  0  0  0  0  0  0  0  0
  1  2  1  0  0  0  0
  1 25  1  0  0  0  0
  1 26  1  0  0  0  0
  1 27  1  0  0  0  0
  2  3  2  0  0  0  0
  4  5  1  0  0  0  0
  4 23  1  0  0  0  0
  4  2  1  0  0  0  0
  4 28  1  6  0  0  0
  5  7  1  0  0  0  0
  5  6  1  0  0  0  0
  5 29  1  1  0  0  0
  6 30  1  0  0  0  0
  7  8  1  0  0  0  0
  7 31  1  0  0  0  0
  7 32  1  0  0  0  0
  8  9  1  0  0  0  0
  8 23  1  0  0  0  0
  8 33  1  6  0  0  0
  9 10  1  0  0  0  0
  9 20  1  0  0  0  0
  9 34  1  1  0  0  0
 10 11  1  0  0  0  0
 10 35  1  0  0  0  0
 10 36  1  0  0  0  0
 11 12  1  0  0  0  0
 11 37  1  0  0  0  0
 11 38  1  0  0  0  0
 12 13  2  0  0  0  0
 12 18  1  0  0  0  0
 13 14  1  0  0  0  0
 13 39  1  0  0  0  0
 14 16  1  0  0  0  0
 14 15  2  0  0  0  0
 16 17  1  0  0  0  0
 16 40  1  0  0  0  0
 16 41  1  0  0  0  0
 17 18  1  0  0  0  0
 17 42  1  0  0  0  0
 17 43  1  0  0  0  0
 18 20  1  0  0  0  0
 18 19  1  1  0  0  0
 19 44  1  0  0  0  0
 19 45  1  0  0  0  0
 19 46  1  0  0  0  0
 20 21  1  0  0  0  0
 20 47  1  6  0  0  0
 21 22  1  0  0  0  0
 21 48  1  0  0  0  0
 21 49  1  0  0  0  0
 22 23  1  0  0  0  0
 22 50  1  0  0  0  0
 22 51  1  0  0  0  0
 23 24  1  1  0  0  0
 24 52  1  0  0  0  0
 24 53  1  0  0  0  0
 24 54  1  0  0  0  0
M  END
$$$$
