CHEBI:16792
 OpenBabel04242415153D

 22 24  0  0  0  0  0  0  0  0999 V2000
   -1.7034    0.6456   -1.1395 O   0  0  0  0  0  0  0  0  0  0  0  0
   -0.7502    0.2505   -0.4781 C   0  0  0  0  0  0  0  0  0  0  0  0
   -0.0638    1.1425    0.5293 C   0  0  0  0  0  0  0  0  0  0  0  0
    1.2264    0.1146    1.2563 S   0  0  0  0  0  0  0  0  0  0  0  0
    0.7698   -1.2194    0.2189 C   0  0  0  0  0  0  0  0  0  0  0  0
    1.4906   -2.4797    0.2796 C   0  0  0  0  0  0  0  0  0  0  0  0
    1.2155   -3.4709   -0.5468 N   0  0  0  0  0  0  0  0  0  0  0  0
    2.0309   -4.5577   -0.2907 C   0  0  0  0  0  0  0  0  0  0  0  0
    2.0135   -5.7858   -0.9838 C   0  0  0  0  0  0  0  0  0  0  0  0
    2.8982   -6.8061   -0.6175 C   0  0  0  0  0  0  0  0  0  0  0  0
    3.7887   -6.6031    0.4282 C   0  0  0  0  0  0  0  0  0  0  0  0
    4.6631   -7.5798    0.8087 O   0  0  0  0  0  0  0  0  0  0  0  0
    3.8320   -5.4013    1.1336 C   0  0  0  0  0  0  0  0  0  0  0  0
    2.9393   -4.3869    0.7539 C   0  0  0  0  0  0  0  0  0  0  0  0
    2.7418   -2.8101    1.4096 S   0  0  0  0  0  0  0  0  0  0  0  0
   -0.2206   -1.0113   -0.5873 N   0  0  0  0  0  0  0  0  0  0  0  0
   -0.7772    1.4585    1.2937 H   0  0  0  0  0  0  0  0  0  0  0  0
    0.3749    2.0046    0.0219 H   0  0  0  0  0  0  0  0  0  0  0  0
    1.3101   -5.9273   -1.7988 H   0  0  0  0  0  0  0  0  0  0  0  0
    2.8713   -7.7452   -1.1622 H   0  0  0  0  0  0  0  0  0  0  0  0
    4.5311   -8.3594    0.2438 H   0  0  0  0  0  0  0  0  0  0  0  0
    4.5346   -5.2597    1.9483 H   0  0  0  0  0  0  0  0  0  0  0  0
  1  2  2  0  0  0  0
  2  3  1  0  0  0  0
  2 16  1  0  0  0  0
  3  4  1  0  0  0  0
  3 17  1  0  0  0  0
  3 18  1  0  0  0  0
  4  5  1  0  0  0  0
  5  6  1  0  0  0  0
  5 16  2  0  0  0  0
  6  7  2  0  0  0  0
  6 15  1  0  0  0  0
  7  8  1  0  0  0  0
  8  9  1  0  0  0  0
  8 14  2  0  0  0  0
  9 10  2  0  0  0  0
  9 19  1  0  0  0  0
 10 11  1  0  0  0  0
 10 20  1  0  0  0  0
 11 12  1  0  0  0  0
 11 13  2  0  0  0  0
 12 21  1  0  0  0  0
 13 14  1  0  0  0  0
 13 22  1  0  0  0  0
 14 15  1  0  0  0  0
M  END
$$$$
