CHEBI:15658
 OpenBabel04242413013D

 54 53  0  0  1  0  0  0  0  0999 V2000
    7.4594   -0.5967  -14.4222 C   0  0  0  0  0  0  0  0  0  0  0  0
    6.5949   -0.0280  -13.3075 C   0  0  0  0  0  0  0  0  0  0  0  0
    6.8970   -0.7023  -11.9700 C   0  0  0  0  0  0  0  0  0  0  0  0
    6.0797   -0.0894  -10.8300 C   0  0  0  0  0  0  0  0  0  0  0  0
    6.3537   -0.8156   -9.5121 C   0  0  0  0  0  0  0  0  0  0  0  0
    5.6933   -0.1409   -8.3434 C   0  0  0  0  0  0  0  0  0  0  0  0
    4.5331   -0.4925   -7.7638 C   0  0  0  0  0  0  0  0  0  0  0  0
    3.5960   -1.5705   -8.2218 C   0  0  0  0  0  0  0  0  0  0  0  0
    3.6399   -2.7715   -7.3253 C   0  0  0  0  0  0  0  0  0  0  0  0
    4.2322   -3.9354   -7.6493 C   0  0  0  0  0  0  0  0  0  0  0  0
    4.2190   -5.2056   -6.8307 C   0  0  2  0  0  0  0  0  0  0  0  0
    3.3085   -5.0661   -5.7410 O   0  0  0  0  0  0  0  0  0  0  0  0
    5.6213   -5.5960   -6.2933 C   0  0  1  0  0  0  0  0  0  0  0  0
    6.0990   -4.5557   -5.4178 O   0  0  0  0  0  0  0  0  0  0  0  0
    5.6197   -6.8789   -5.4444 C   0  0  0  0  0  0  0  0  0  0  0  0
    5.0966   -8.1247   -6.1630 C   0  0  0  0  0  0  0  0  0  0  0  0
    5.0903   -9.3319   -5.2193 C   0  0  0  0  0  0  0  0  0  0  0  0
    4.6095  -10.6314   -5.8765 C   0  0  0  0  0  0  0  0  0  0  0  0
    3.1482  -10.6333   -6.3288 C   0  0  0  0  0  0  0  0  0  0  0  0
    2.1675  -10.6057   -5.1856 C   0  0  0  0  0  0  0  0  0  0  0  0
    2.4029  -10.7292   -3.9971 O   0  0  0  0  0  0  0  0  0  0  0  0
    0.8997  -10.4575   -5.6204 O   0  0  0  0  0  0  0  0  0  0  0  0
    7.2211   -0.1108  -15.3734 H   0  0  0  0  0  0  0  0  0  0  0  0
    7.2939   -1.6725  -14.5386 H   0  0  0  0  0  0  0  0  0  0  0  0
    8.5221   -0.4335  -14.2150 H   0  0  0  0  0  0  0  0  0  0  0  0
    5.5383   -0.1680  -13.5636 H   0  0  0  0  0  0  0  0  0  0  0  0
    6.7711    1.0512  -13.2317 H   0  0  0  0  0  0  0  0  0  0  0  0
    7.9656   -0.6039  -11.7428 H   0  0  0  0  0  0  0  0  0  0  0  0
    6.6810   -1.7752  -12.0448 H   0  0  0  0  0  0  0  0  0  0  0  0
    5.0102   -0.1500  -11.0686 H   0  0  0  0  0  0  0  0  0  0  0  0
    6.3275    0.9750  -10.7339 H   0  0  0  0  0  0  0  0  0  0  0  0
    7.4330   -0.8430   -9.3181 H   0  0  0  0  0  0  0  0  0  0  0  0
    6.0389   -1.8621   -9.5922 H   0  0  0  0  0  0  0  0  0  0  0  0
    6.2424    0.6984   -7.9177 H   0  0  0  0  0  0  0  0  0  0  0  0
    4.2021    0.0801   -6.8980 H   0  0  0  0  0  0  0  0  0  0  0  0
    3.7890   -1.8544   -9.2621 H   0  0  0  0  0  0  0  0  0  0  0  0
    2.5750   -1.1690   -8.2155 H   0  0  0  0  0  0  0  0  0  0  0  0
    3.1048   -2.6809   -6.3819 H   0  0  0  0  0  0  0  0  0  0  0  0
    4.7521   -4.0081   -8.6032 H   0  0  0  0  0  0  0  0  0  0  0  0
    3.8317   -5.9960   -7.4815 H   0  0  0  0  0  0  0  0  0  0  0  0
    3.8294   -4.6741   -5.0144 H   0  0  0  0  0  0  0  0  0  0  0  0
    6.3377   -5.6955   -7.1171 H   0  0  0  0  0  0  0  0  0  0  0  0
    6.1261   -3.7298   -5.9359 H   0  0  0  0  0  0  0  0  0  0  0  0
    5.0368   -6.7100   -4.5292 H   0  0  0  0  0  0  0  0  0  0  0  0
    6.6447   -7.0640   -5.0956 H   0  0  0  0  0  0  0  0  0  0  0  0
    5.7221   -8.3367   -7.0379 H   0  0  0  0  0  0  0  0  0  0  0  0
    4.0792   -7.9449   -6.5195 H   0  0  0  0  0  0  0  0  0  0  0  0
    4.4742   -9.1070   -4.3413 H   0  0  0  0  0  0  0  0  0  0  0  0
    6.1097   -9.4963   -4.8482 H   0  0  0  0  0  0  0  0  0  0  0  0
    4.7665  -11.4533   -5.1666 H   0  0  0  0  0  0  0  0  0  0  0  0
    5.2450  -10.8439   -6.7448 H   0  0  0  0  0  0  0  0  0  0  0  0
    2.9588  -11.5562   -6.8895 H   0  0  0  0  0  0  0  0  0  0  0  0
    2.9455   -9.7878   -6.9925 H   0  0  0  0  0  0  0  0  0  0  0  0
    0.3651  -10.4631   -4.7988 H   0  0  0  0  0  0  0  0  0  0  0  0
  1  2  1  0  0  0  0
  1 23  1  0  0  0  0
  1 24  1  0  0  0  0
  1 25  1  0  0  0  0
  2  3  1  0  0  0  0
  2 26  1  0  0  0  0
  2 27  1  0  0  0  0
  3  4  1  0  0  0  0
  3 28  1  0  0  0  0
  3 29  1  0  0  0  0
  4  5  1  0  0  0  0
  4 30  1  0  0  0  0
  4 31  1  0  0  0  0
  5  6  1  0  0  0  0
  5 32  1  0  0  0  0
  5 33  1  0  0  0  0
  6  7  2  0  0  0  0
  6 34  1  0  0  0  0
  7  8  1  0  0  0  0
  7 35  1  0  0  0  0
  8  9  1  0  0  0  0
  8 36  1  0  0  0  0
  8 37  1  0  0  0  0
  9 10  2  0  0  0  0
  9 38  1  0  0  0  0
 10 39  1  0  0  0  0
 11 13  1  0  0  0  0
 11 12  1  0  0  0  0
 11 10  1  0  0  0  0
 11 40  1  6  0  0  0
 12 41  1  0  0  0  0
 13 14  1  0  0  0  0
 13 15  1  0  0  0  0
 13 42  1  6  0  0  0
 14 43  1  0  0  0  0
 15 16  1  0  0  0  0
 15 44  1  0  0  0  0
 15 45  1  0  0  0  0
 16 17  1  0  0  0  0
 16 46  1  0  0  0  0
 16 47  1  0  0  0  0
 17 18  1  0  0  0  0
 17 48  1  0  0  0  0
 17 49  1  0  0  0  0
 18 19  1  0  0  0  0
 18 50  1  0  0  0  0
 18 51  1  0  0  0  0
 19 20  1  0  0  0  0
 19 52  1  0  0  0  0
 19 53  1  0  0  0  0
 20 21  2  0  0  0  0
 20 22  1  0  0  0  0
 22 54  1  0  0  0  0
M  END
$$$$
