CHEBI:16172
 OpenBabel04242413583D

 39 38  0  0  0  0  0  0  0  0999 V2000
    2.1482    0.2695    1.9927 C   0  0  0  0  0  0  0  0  0  0  0  0
    3.4426   -0.3281    2.4799 C   0  0  0  0  0  0  0  0  0  0  0  0
    3.3014   -1.1889    3.7045 C   0  0  0  0  0  0  0  0  0  0  0  0
    4.5994   -0.0735    1.8369 C   0  0  0  0  0  0  0  0  0  0  0  0
    5.9876   -0.5240    2.2101 C   0  0  0  0  0  0  0  0  0  0  0  0
    6.5485   -1.5252    1.1934 C   0  0  0  0  0  0  0  0  0  0  0  0
    7.9755   -1.9237    1.5109 C   0  0  0  0  0  0  0  0  0  0  0  0
    9.0385   -1.1019    0.8299 C   0  0  0  0  0  0  0  0  0  0  0  0
    8.3165   -2.9135    2.3606 C   0  0  0  0  0  0  0  0  0  0  0  0
    7.4015   -3.7752    3.1712 C   0  0  0  0  0  0  0  0  0  0  0  0
    7.5426   -3.3643    4.5149 O   0  0  0  0  0  0  0  0  0  0  0  0
    6.6886   -4.1563    5.6060 P   0  0  0  0  0  0  0  0  0  0  0  0
    5.2887   -4.5240    5.2285 O   0  0  0  0  0  0  0  0  0  0  0  0
    7.6037   -5.4302    5.9320 O   0  0  0  0  0  0  0  0  0  0  0  0
    6.7951   -3.2855    6.9301 O   0  0  0  0  0  0  0  0  0  0  0  0
    5.7987   -2.0623    7.1115 P   0  0  0  0  0  0  0  0  0  0  0  0
    5.8007   -1.0014    6.0720 O   0  0  0  0  0  0  0  0  0  0  0  0
    4.3740   -2.7448    7.3499 O   0  0  0  0  0  0  0  0  0  0  0  0
    6.1265   -1.5074    8.5737 O   0  0  0  0  0  0  0  0  0  0  0  0
    1.3933   -0.5113    1.8540 H   0  0  0  0  0  0  0  0  0  0  0  0
    2.2642    0.7878    1.0351 H   0  0  0  0  0  0  0  0  0  0  0  0
    1.7704    0.9928    2.7229 H   0  0  0  0  0  0  0  0  0  0  0  0
    2.5229   -1.9433    3.5463 H   0  0  0  0  0  0  0  0  0  0  0  0
    3.0153   -0.5767    4.5660 H   0  0  0  0  0  0  0  0  0  0  0  0
    4.2121   -1.7336    3.9597 H   0  0  0  0  0  0  0  0  0  0  0  0
    4.5687    0.5668    0.9552 H   0  0  0  0  0  0  0  0  0  0  0  0
    6.0186   -0.9545    3.2148 H   0  0  0  0  0  0  0  0  0  0  0  0
    6.6283    0.3661    2.2484 H   0  0  0  0  0  0  0  0  0  0  0  0
    6.5124   -1.0943    0.1837 H   0  0  0  0  0  0  0  0  0  0  0  0
    5.9061   -2.4128    1.1451 H   0  0  0  0  0  0  0  0  0  0  0  0
    8.9380   -0.0476    1.1072 H   0  0  0  0  0  0  0  0  0  0  0  0
    8.9489   -1.1879   -0.2576 H   0  0  0  0  0  0  0  0  0  0  0  0
   10.0493   -1.4209    1.1059 H   0  0  0  0  0  0  0  0  0  0  0  0
    9.3732   -3.1105    2.5364 H   0  0  0  0  0  0  0  0  0  0  0  0
    7.6957   -4.8251    3.0698 H   0  0  0  0  0  0  0  0  0  0  0  0
    6.3551   -3.6825    2.8707 H   0  0  0  0  0  0  0  0  0  0  0  0
    7.1386   -6.0829    6.4854 H   0  0  0  0  0  0  0  0  0  0  0  0
    4.0066   -3.1283    6.5259 H   0  0  0  0  0  0  0  0  0  0  0  0
    5.6872   -0.6503    8.7190 H   0  0  0  0  0  0  0  0  0  0  0  0
  1  2  1  0  0  0  0
  1 20  1  0  0  0  0
  1 21  1  0  0  0  0
  1 22  1  0  0  0  0
  2  3  1  0  0  0  0
  2  4  2  0  0  0  0
  3 23  1  0  0  0  0
  3 24  1  0  0  0  0
  3 25  1  0  0  0  0
  4  5  1  0  0  0  0
  4 26  1  0  0  0  0
  5  6  1  0  0  0  0
  5 27  1  0  0  0  0
  5 28  1  0  0  0  0
  6  7  1  0  0  0  0
  6 29  1  0  0  0  0
  6 30  1  0  0  0  0
  7  8  1  0  0  0  0
  7  9  2  0  0  0  0
  8 31  1  0  0  0  0
  8 32  1  0  0  0  0
  8 33  1  0  0  0  0
  9 10  1  0  0  0  0
  9 34  1  0  0  0  0
 10 11  1  0  0  0  0
 10 35  1  0  0  0  0
 10 36  1  0  0  0  0
 11 12  1  0  0  0  0
 12 13  2  0  0  0  0
 12 14  1  0  0  0  0
 12 15  1  0  0  0  0
 14 37  1  0  0  0  0
 15 16  1  0  0  0  0
 16 17  2  0  0  0  0
 16 18  1  0  0  0  0
 16 19  1  0  0  0  0
 18 38  1  0  0  0  0
 19 39  1  0  0  0  0
M  END
$$$$
