CHEBI:15591
 OpenBabel04242412513D

 21 20  0  0  0  0  0  0  0  0999 V2000
    1.4268    0.4384   -0.3122 C   0  0  0  0  0  0  0  0  0  0  0  0
    2.7815   -0.0078   -0.8471 C   0  0  0  0  0  0  0  0  0  0  0  0
    3.3645   -1.2080   -0.0848 C   0  0  0  0  0  0  0  0  0  0  0  0
    2.5385   -2.4480   -0.3315 C   0  0  0  0  0  0  0  0  0  0  0  0
    2.7037   -3.1800   -1.2987 O   0  0  0  0  0  0  0  0  0  0  0  0
    1.5900   -2.6794    0.5980 O   0  0  0  0  0  0  0  0  0  0  0  0
    4.8021   -1.5491   -0.5141 C   0  0  0  0  0  0  0  0  0  0  0  0
    4.9472   -1.5824   -1.9465 O   0  0  0  0  0  0  0  0  0  0  0  0
    5.7809   -0.5137    0.0344 C   0  0  0  0  0  0  0  0  0  0  0  0
    5.8602   -0.1805    1.2064 O   0  0  0  0  0  0  0  0  0  0  0  0
    6.5500    0.0133   -0.9514 O   0  0  0  0  0  0  0  0  0  0  0  0
    1.1135    1.3626   -0.8083 H   0  0  0  0  0  0  0  0  0  0  0  0
    1.4700    0.6295    0.7646 H   0  0  0  0  0  0  0  0  0  0  0  0
    0.6565   -0.3154   -0.5010 H   0  0  0  0  0  0  0  0  0  0  0  0
    3.4710    0.8414   -0.7709 H   0  0  0  0  0  0  0  0  0  0  0  0
    2.6748   -0.2398   -1.9135 H   0  0  0  0  0  0  0  0  0  0  0  0
    3.3663   -1.0030    0.9933 H   0  0  0  0  0  0  0  0  0  0  0  0
    1.5369   -2.0165    1.3139 H   0  0  0  0  0  0  0  0  0  0  0  0
    5.1281   -2.5240   -0.1319 H   0  0  0  0  0  0  0  0  0  0  0  0
    4.3636   -2.3133   -2.2539 H   0  0  0  0  0  0  0  0  0  0  0  0
    6.2650   -0.4118   -1.7989 H   0  0  0  0  0  0  0  0  0  0  0  0
  1  2  1  0  0  0  0
  1 12  1  0  0  0  0
  1 13  1  0  0  0  0
  1 14  1  0  0  0  0
  2  3  1  0  0  0  0
  2 15  1  0  0  0  0
  2 16  1  0  0  0  0
  3  4  1  0  0  0  0
  3  7  1  0  0  0  0
  3 17  1  0  0  0  0
  4  5  2  0  0  0  0
  4  6  1  0  0  0  0
  6 18  1  0  0  0  0
  7  8  1  0  0  0  0
  7  9  1  0  0  0  0
  7 19  1  0  0  0  0
  8 20  1  0  0  0  0
  9 10  2  0  0  0  0
  9 11  1  0  0  0  0
 11 21  1  0  0  0  0
M  END
$$$$
