CHEBI:16726
 OpenBabel04242415083D

 74 77  0  0  1  0  0  0  0  0999 V2000
   -7.0297    3.4004    1.8607 C   0  0  0  0  0  0  0  0  0  0  0  0
   -6.0361    4.5343    2.0983 C   0  0  2  0  0  0  0  0  0  0  0  0
   -4.9311    3.9789    2.8278 O   0  0  0  0  0  0  0  0  0  0  0  0
   -3.8938    4.9304    3.1011 C   0  0  1  0  0  0  0  0  0  0  0  0
   -3.3338    5.4929    1.9206 O   0  0  0  0  0  0  0  0  0  0  0  0
   -2.6636    4.5226    1.1050 C   0  0  0  0  0  0  0  0  0  0  0  0
   -2.0931    5.2143   -0.1474 C   0  0  1  0  0  0  0  0  0  0  0  0
   -3.1927    5.8025   -0.8525 O   0  0  0  0  0  0  0  0  0  0  0  0
   -2.8170    6.4987   -2.0434 C   0  0  1  0  0  0  0  0  0  0  0  0
   -4.0144    6.9904   -2.6750 O   0  0  0  0  0  0  0  0  0  0  0  0
   -4.9182    6.0430   -3.0937 C   0  0  0  0  0  0  0  0  0  0  0  0
   -4.5831    4.7174   -3.3027 C   0  0  0  0  0  0  0  0  0  0  0  0
   -5.5841    3.8375   -3.6820 C   0  0  0  0  0  0  0  0  0  0  0  0
   -5.4050    2.4531   -3.8612 C   0  0  0  0  0  0  0  0  0  0  0  0
   -4.1945    1.8640   -3.6292 O   0  0  0  0  0  0  0  0  0  0  0  0
   -6.4482    1.6252   -4.2568 C   0  0  0  0  0  0  0  0  0  0  0  0
   -7.6948    2.1868   -4.4813 C   0  0  0  0  0  0  0  0  0  0  0  0
   -8.7522    1.4297   -4.8834 O   0  0  0  0  0  0  0  0  0  0  0  0
   -7.9066    3.5467   -4.2909 C   0  0  0  0  0  0  0  0  0  0  0  0
   -6.8553    4.3697   -3.8880 C   0  0  0  0  0  0  0  0  0  0  0  0
   -7.1434    5.5814   -3.6839 O   0  3  0  0  0  0  0  0  0  0  0  0
   -6.2679    6.4123   -3.2936 C   0  0  0  0  0  0  0  0  0  0  0  0
   -6.8779    7.7286   -2.9707 C   0  0  0  0  0  0  0  0  0  0  0  0
   -8.2364    7.7575   -2.5555 C   0  0  0  0  0  0  0  0  0  0  0  0
   -8.9038    8.9488   -2.2479 C   0  0  0  0  0  0  0  0  0  0  0  0
   -8.2162   10.1436   -2.3579 C   0  0  0  0  0  0  0  0  0  0  0  0
   -8.8041   11.3456   -2.0853 O   0  0  0  0  0  0  0  0  0  0  0  0
   -6.8854   10.1453   -2.7653 C   0  0  0  0  0  0  0  0  0  0  0  0
   -6.2167   11.3308   -2.8774 O   0  0  0  0  0  0  0  0  0  0  0  0
   -6.2145    8.9620   -3.0728 C   0  0  0  0  0  0  0  0  0  0  0  0
   -1.8803    7.6709   -1.6991 C   0  0  2  0  0  0  0  0  0  0  0  0
   -1.4572    8.3666   -2.8787 O   0  0  0  0  0  0  0  0  0  0  0  0
   -0.6453    7.1041   -0.9930 C   0  0  1  0  0  0  0  0  0  0  0  0
    0.2136    8.1846   -0.5985 O   0  0  0  0  0  0  0  0  0  0  0  0
   -1.0366    6.2662    0.2279 C   0  0  2  0  0  0  0  0  0  0  0  0
    0.1433    5.6543    0.7677 O   0  0  0  0  0  0  0  0  0  0  0  0
   -4.4649    6.0490    3.9949 C   0  0  2  0  0  0  0  0  0  0  0  0
   -4.9320    5.5309    5.2580 O   0  0  0  0  0  0  0  0  0  0  0  0
   -5.6458    6.7235    3.2903 C   0  0  2  0  0  0  0  0  0  0  0  0
   -6.2859    7.6676    4.1684 O   0  0  0  0  0  0  0  0  0  0  0  0
   -6.6954    5.6929    2.8588 C   0  0  1  0  0  0  0  0  0  0  0  0
   -7.6849    6.3387    2.0473 O   0  0  0  0  0  0  0  0  0  0  0  0
   -2.5370    2.9885   -5.9295 Cl  0  5  0  0  0  0  0  0  0  0  0  0
   -6.5432    2.5720    1.3343 H   0  0  0  0  0  0  0  0  0  0  0  0
   -7.8885    3.7319    1.2700 H   0  0  0  0  0  0  0  0  0  0  0  0
   -7.3930    2.9952    2.8121 H   0  0  0  0  0  0  0  0  0  0  0  0
   -5.6895    4.8767    1.1151 H   0  0  0  0  0  0  0  0  0  0  0  0
   -3.1138    4.4004    3.6606 H   0  0  0  0  0  0  0  0  0  0  0  0
   -3.3903    3.7650    0.7903 H   0  0  0  0  0  0  0  0  0  0  0  0
   -1.8663    4.0397    1.6798 H   0  0  0  0  0  0  0  0  0  0  0  0
   -1.6453    4.4392   -0.7825 H   0  0  0  0  0  0  0  0  0  0  0  0
   -2.2803    5.8419   -2.7399 H   0  0  0  0  0  0  0  0  0  0  0  0
   -3.5759    4.3318   -3.1839 H   0  0  0  0  0  0  0  0  0  0  0  0
   -3.5907    2.1412   -4.3810 H   0  0  0  0  0  0  0  0  0  0  0  0
   -6.2596    0.5634   -4.3914 H   0  0  0  0  0  0  0  0  0  0  0  0
   -8.4411    0.5269   -5.0817 H   0  0  0  0  0  0  0  0  0  0  0  0
   -8.8873    3.9797   -4.4510 H   0  0  0  0  0  0  0  0  0  0  0  0
   -8.7943    6.8239   -2.4684 H   0  0  0  0  0  0  0  0  0  0  0  0
   -9.9426    8.9157   -1.9337 H   0  0  0  0  0  0  0  0  0  0  0  0
   -9.7310   11.1889   -1.8329 H   0  0  0  0  0  0  0  0  0  0  0  0
   -6.8692   12.0144   -2.6219 H   0  0  0  0  0  0  0  0  0  0  0  0
   -5.1813    9.0358   -3.4057 H   0  0  0  0  0  0  0  0  0  0  0  0
   -2.3894    8.4038   -1.0622 H   0  0  0  0  0  0  0  0  0  0  0  0
   -0.7160    8.9390   -2.5935 H   0  0  0  0  0  0  0  0  0  0  0  0
   -0.0526    6.5021   -1.6939 H   0  0  0  0  0  0  0  0  0  0  0  0
    0.8591    7.8044    0.0307 H   0  0  0  0  0  0  0  0  0  0  0  0
   -1.4189    6.9435    1.0005 H   0  0  0  0  0  0  0  0  0  0  0  0
    0.5126    5.0409    0.1053 H   0  0  0  0  0  0  0  0  0  0  0  0
   -3.7011    6.8007    4.2214 H   0  0  0  0  0  0  0  0  0  0  0  0
   -5.1729    4.5941    5.1147 H   0  0  0  0  0  0  0  0  0  0  0  0
   -5.3034    7.2929    2.4184 H   0  0  0  0  0  0  0  0  0  0  0  0
   -6.1550    7.3157    5.0739 H   0  0  0  0  0  0  0  0  0  0  0  0
   -7.2156    5.3143    3.7479 H   0  0  0  0  0  0  0  0  0  0  0  0
   -7.8965    7.1691    2.5214 H   0  0  0  0  0  0  0  0  0  0  0  0
  1  2  1  0  0  0  0
  1 44  1  0  0  0  0
  1 45  1  0  0  0  0
  1 46  1  0  0  0  0
  2  3  1  0  0  0  0
  2 41  1  0  0  0  0
  2 47  1  6  0  0  0
  3  4  1  0  0  0  0
  4 37  1  0  0  0  0
  4  5  1  0  0  0  0
  4 48  1  1  0  0  0
  5  6  1  0  0  0  0
  6 49  1  0  0  0  0
  6 50  1  0  0  0  0
  7  8  1  0  0  0  0
  7 35  1  0  0  0  0
  7  6  1  0  0  0  0
  7 51  1  6  0  0  0
  8  9  1  0  0  0  0
  9 31  1  0  0  0  0
  9 10  1  0  0  0  0
  9 52  1  6  0  0  0
 10 11  1  0  0  0  0
 11 12  1  0  0  0  0
 11 22  2  0  0  0  0
 12 13  2  0  0  0  0
 12 53  1  0  0  0  0
 13 14  1  0  0  0  0
 13 20  1  0  0  0  0
 14 15  1  0  0  0  0
 14 16  2  0  0  0  0
 15 54  1  0  0  0  0
 16 17  1  0  0  0  0
 16 55  1  0  0  0  0
 17 18  1  0  0  0  0
 17 19  2  0  0  0  0
 18 56  1  0  0  0  0
 19 20  1  0  0  0  0
 19 57  1  0  0  0  0
 20 21  2  0  0  0  0
 21 22  1  0  0  0  0
 22 23  1  0  0  0  0
 23 24  1  0  0  0  0
 23 30  2  0  0  0  0
 24 25  2  0  0  0  0
 24 58  1  0  0  0  0
 25 26  1  0  0  0  0
 25 59  1  0  0  0  0
 26 27  1  0  0  0  0
 26 28  2  0  0  0  0
 27 60  1  0  0  0  0
 28 29  1  0  0  0  0
 28 30  1  0  0  0  0
 29 61  1  0  0  0  0
 30 62  1  0  0  0  0
 31 32  1  0  0  0  0
 31 33  1  0  0  0  0
 31 63  1  1  0  0  0
 32 64  1  0  0  0  0
 33 34  1  0  0  0  0
 33 35  1  0  0  0  0
 33 65  1  6  0  0  0
 34 66  1  0  0  0  0
 35 36  1  0  0  0  0
 35 67  1  1  0  0  0
 36 68  1  0  0  0  0
 37 38  1  0  0  0  0
 37 39  1  0  0  0  0
 37 69  1  1  0  0  0
 38 70  1  0  0  0  0
 39 40  1  0  0  0  0
 39 41  1  0  0  0  0
 39 71  1  6  0  0  0
 40 72  1  0  0  0  0
 41 42  1  0  0  0  0
 41 73  1  1  0  0  0
 42 74  1  0  0  0  0
M  CHG  2  21   1  43  -1
M  END
$$$$
