CHEBI:27462
 OpenBabel04252410133D

 43 42  0  0  0  0  0  0  0  0999 V2000
    8.5308    3.8042    0.9598 C   0  0  0  0  0  0  0  0  0  0  0  0
    7.2016    3.8643    1.7163 C   0  0  0  0  0  0  0  0  0  0  0  0
    6.0525    4.0858    0.7311 C   0  0  0  0  0  0  0  0  0  0  0  0
    6.9611    2.5789    2.5227 C   0  0  0  0  0  0  0  0  0  0  0  0
    7.9134    2.4326    3.6937 C   0  0  0  0  0  0  0  0  0  0  0  0
    8.4004    3.3727    4.3079 O   0  0  0  0  0  0  0  0  0  0  0  0
    8.2200    0.7600    4.1596 S   0  0  0  0  0  0  0  0  0  0  0  0
    8.7825    1.0307    5.8705 C   0  0  0  0  0  0  0  0  0  0  0  0
    8.9604   -0.3231    6.5654 C   0  0  0  0  0  0  0  0  0  0  0  0
    9.4724   -0.2260    8.0151 C   0  0  0  0  0  0  0  0  0  0  0  0
    8.3237    0.7474    9.0655 S   0  0  0  0  0  0  0  0  0  0  0  0
    9.6408   -1.6062    8.6798 C   0  0  0  0  0  0  0  0  0  0  0  0
   10.7236   -2.4763    8.0302 C   0  0  0  0  0  0  0  0  0  0  0  0
   10.8656   -3.8126    8.7695 C   0  0  0  0  0  0  0  0  0  0  0  0
   11.8997   -4.7341    8.1244 C   0  0  0  0  0  0  0  0  0  0  0  0
   11.4219   -5.3604    6.8299 C   0  0  0  0  0  0  0  0  0  0  0  0
   12.3577   -6.1335    6.2072 N   0  0  0  0  0  0  0  0  0  0  0  0
   10.3037   -5.2211    6.3515 O   0  0  0  0  0  0  0  0  0  0  0  0
    8.6864    4.7182    0.3769 H   0  0  0  0  0  0  0  0  0  0  0  0
    8.5563    2.9548    0.2685 H   0  0  0  0  0  0  0  0  0  0  0  0
    9.3756    3.7046    1.6487 H   0  0  0  0  0  0  0  0  0  0  0  0
    7.2333    4.7240    2.3973 H   0  0  0  0  0  0  0  0  0  0  0  0
    5.9685    3.2533    0.0240 H   0  0  0  0  0  0  0  0  0  0  0  0
    6.2043    5.0051    0.1557 H   0  0  0  0  0  0  0  0  0  0  0  0
    5.0985    4.1779    1.2609 H   0  0  0  0  0  0  0  0  0  0  0  0
    7.0416    1.7108    1.8575 H   0  0  0  0  0  0  0  0  0  0  0  0
    5.9469    2.5830    2.9413 H   0  0  0  0  0  0  0  0  0  0  0  0
    8.0314    1.6406    6.3796 H   0  0  0  0  0  0  0  0  0  0  0  0
    9.7306    1.5783    5.8577 H   0  0  0  0  0  0  0  0  0  0  0  0
    9.6808   -0.9084    5.9809 H   0  0  0  0  0  0  0  0  0  0  0  0
    8.0151   -0.8822    6.5482 H   0  0  0  0  0  0  0  0  0  0  0  0
   10.4344    0.2992    8.0252 H   0  0  0  0  0  0  0  0  0  0  0  0
    7.2532   -0.0453    8.9015 H   0  0  0  0  0  0  0  0  0  0  0  0
    8.6873   -2.1507    8.6567 H   0  0  0  0  0  0  0  0  0  0  0  0
    9.9068   -1.4741    9.7374 H   0  0  0  0  0  0  0  0  0  0  0  0
   11.6820   -1.9438    8.0461 H   0  0  0  0  0  0  0  0  0  0  0  0
   10.4744   -2.6653    6.9823 H   0  0  0  0  0  0  0  0  0  0  0  0
    9.8924   -4.3163    8.8177 H   0  0  0  0  0  0  0  0  0  0  0  0
   11.1730   -3.6133    9.8035 H   0  0  0  0  0  0  0  0  0  0  0  0
   12.1204   -5.5548    8.8177 H   0  0  0  0  0  0  0  0  0  0  0  0
   12.8327   -4.1907    7.9371 H   0  0  0  0  0  0  0  0  0  0  0  0
   13.2606   -6.3398    6.6099 H   0  0  0  0  0  0  0  0  0  0  0  0
   12.0843   -6.6033    5.3537 H   0  0  0  0  0  0  0  0  0  0  0  0
  1  2  1  0  0  0  0
  1 19  1  0  0  0  0
  1 20  1  0  0  0  0
  1 21  1  0  0  0  0
  2  3  1  0  0  0  0
  2  4  1  0  0  0  0
  2 22  1  0  0  0  0
  3 23  1  0  0  0  0
  3 24  1  0  0  0  0
  3 25  1  0  0  0  0
  4  5  1  0  0  0  0
  4 26  1  0  0  0  0
  4 27  1  0  0  0  0
  5  6  2  0  0  0  0
  5  7  1  0  0  0  0
  7  8  1  0  0  0  0
  8  9  1  0  0  0  0
  8 28  1  0  0  0  0
  8 29  1  0  0  0  0
  9 10  1  0  0  0  0
  9 30  1  0  0  0  0
  9 31  1  0  0  0  0
 10 11  1  0  0  0  0
 10 12  1  0  0  0  0
 10 32  1  0  0  0  0
 11 33  1  0  0  0  0
 12 13  1  0  0  0  0
 12 34  1  0  0  0  0
 12 35  1  0  0  0  0
 13 14  1  0  0  0  0
 13 36  1  0  0  0  0
 13 37  1  0  0  0  0
 14 15  1  0  0  0  0
 14 38  1  0  0  0  0
 14 39  1  0  0  0  0
 15 16  1  0  0  0  0
 15 40  1  0  0  0  0
 15 41  1  0  0  0  0
 16 17  1  0  0  0  0
 16 18  2  0  0  0  0
 17 42  1  0  0  0  0
 17 43  1  0  0  0  0
M  END
$$$$
