CHEBI:17278
 OpenBabel04242416113D

 79 82  0  0  1  0  0  0  0  0999 V2000
    0.9664   -0.5723   -3.8058 C   0  0  0  0  0  0  0  0  0  0  0  0
    2.4590   -0.6961   -4.1365 C   0  0  0  0  0  0  0  0  0  0  0  0
    2.6920   -0.5708   -5.6483 C   0  0  0  0  0  0  0  0  0  0  0  0
    1.9489   -1.5537   -6.3602 O   0  0  0  0  0  0  0  0  0  0  0  0
    3.2531    0.3481   -3.3277 C   0  0  0  0  0  0  0  0  0  0  0  0
    4.7709    0.2421   -3.5129 C   0  0  0  0  0  0  0  0  0  0  0  0
    5.5153    1.1684   -2.5425 C   0  0  0  0  0  0  0  0  0  0  0  0
    7.0630    1.1369   -2.6612 C   0  0  1  0  0  0  0  0  0  0  0  0
    7.5755   -0.2794   -2.3831 C   0  0  0  0  0  0  0  0  0  0  0  0
    7.5745    1.7233   -4.0075 C   0  0  1  0  0  0  0  0  0  0  0  0
    7.1051    3.1935   -4.2119 C   0  0  0  0  0  0  0  0  0  0  0  0
    8.1970    3.9135   -5.0129 C   0  0  0  0  0  0  0  0  0  0  0  0
    9.1226    2.7923   -5.4644 C   0  0  1  0  0  0  0  0  0  0  0  0
   10.5385    3.1724   -5.9303 C   0  0  2  0  0  0  0  0  0  0  0  0
   10.5390    4.2740   -7.0097 C   0  0  2  0  0  0  0  0  0  0  0  0
    9.6134    4.0149   -8.0591 O   0  0  0  0  0  0  0  0  0  0  0  0
   11.9306    4.5376   -7.5904 C   0  0  0  0  0  0  0  0  0  0  0  0
   12.7190    3.2797   -8.0050 C   0  0  2  0  0  0  0  0  0  0  0  0
   12.2282    2.7347   -9.3619 C   0  0  0  0  0  0  0  0  0  0  0  0
   13.0058    1.5000   -9.8063 C   0  0  2  0  0  0  0  0  0  0  0  0
   12.4683    1.0053  -11.0272 O   0  0  0  0  0  0  0  0  0  0  0  0
   12.9497    0.4113   -8.7427 C   0  0  0  0  0  0  0  0  0  0  0  0
   13.4918    0.9312   -7.4179 C   0  0  0  0  0  0  0  0  0  0  0  0
   12.7567    2.1947   -6.8769 C   0  0  1  0  0  0  0  0  0  0  0  0
   13.6308    2.7176   -5.7038 C   0  0  0  0  0  0  0  0  0  0  0  0
   11.2863    1.8801   -6.3950 C   0  0  1  0  0  0  0  0  0  0  0  0
   11.2118    0.7587   -5.3183 C   0  0  0  0  0  0  0  0  0  0  0  0
    9.8074    0.4976   -4.7346 C   0  0  2  0  0  0  0  0  0  0  0  0
    9.0267   -0.2161   -5.6924 O   0  0  0  0  0  0  0  0  0  0  0  0
    9.1148    1.7998   -4.2685 C   0  0  2  0  0  0  0  0  0  0  0  0
    9.8543    2.3522   -3.0204 C   0  0  0  0  0  0  0  0  0  0  0  0
    0.3809   -1.3474   -4.3107 H   0  0  0  0  0  0  0  0  0  0  0  0
    0.5739    0.4035   -4.1119 H   0  0  0  0  0  0  0  0  0  0  0  0
    0.7967   -0.6830   -2.7294 H   0  0  0  0  0  0  0  0  0  0  0  0
    2.7732   -1.7001   -3.8218 H   0  0  0  0  0  0  0  0  0  0  0  0
    3.7453   -0.7124   -5.9066 H   0  0  0  0  0  0  0  0  0  0  0  0
    2.3837    0.4146   -6.0124 H   0  0  0  0  0  0  0  0  0  0  0  0
    2.2391   -2.4252   -6.0407 H   0  0  0  0  0  0  0  0  0  0  0  0
    3.0170    0.2192   -2.2634 H   0  0  0  0  0  0  0  0  0  0  0  0
    2.9251    1.3588   -3.6021 H   0  0  0  0  0  0  0  0  0  0  0  0
    5.0301    0.5066   -4.5418 H   0  0  0  0  0  0  0  0  0  0  0  0
    5.0777   -0.7966   -3.3497 H   0  0  0  0  0  0  0  0  0  0  0  0
    5.2448    0.8887   -1.5154 H   0  0  0  0  0  0  0  0  0  0  0  0
    5.1532    2.1950   -2.6724 H   0  0  0  0  0  0  0  0  0  0  0  0
    7.4342    1.7763   -1.8490 H   0  0  0  0  0  0  0  0  0  0  0  0
    7.4335   -0.9383   -3.2452 H   0  0  0  0  0  0  0  0  0  0  0  0
    7.0551   -0.7224   -1.5266 H   0  0  0  0  0  0  0  0  0  0  0  0
    8.6372   -0.2761   -2.1271 H   0  0  0  0  0  0  0  0  0  0  0  0
    7.1295    1.1337   -4.8196 H   0  0  0  0  0  0  0  0  0  0  0  0
    6.9497    3.7142   -3.2603 H   0  0  0  0  0  0  0  0  0  0  0  0
    6.1532    3.2119   -4.7551 H   0  0  0  0  0  0  0  0  0  0  0  0
    8.7211    4.6391   -4.3810 H   0  0  0  0  0  0  0  0  0  0  0  0
    7.7702    4.4633   -5.8580 H   0  0  0  0  0  0  0  0  0  0  0  0
    8.6156    2.3186   -6.3182 H   0  0  0  0  0  0  0  0  0  0  0  0
   11.0758    3.5957   -5.0760 H   0  0  0  0  0  0  0  0  0  0  0  0
   10.1974    5.2097   -6.5510 H   0  0  0  0  0  0  0  0  0  0  0  0
    9.5686    3.0612   -8.2246 H   0  0  0  0  0  0  0  0  0  0  0  0
   12.5181    5.0769   -6.8367 H   0  0  0  0  0  0  0  0  0  0  0  0
   11.8482    5.2120   -8.4521 H   0  0  0  0  0  0  0  0  0  0  0  0
   13.7538    3.6107   -8.1809 H   0  0  0  0  0  0  0  0  0  0  0  0
   12.3220    3.5113  -10.1321 H   0  0  0  0  0  0  0  0  0  0  0  0
   11.1650    2.4833   -9.3377 H   0  0  0  0  0  0  0  0  0  0  0  0
   14.0491    1.7736  -10.0014 H   0  0  0  0  0  0  0  0  0  0  0  0
   11.5393    0.7619  -10.8779 H   0  0  0  0  0  0  0  0  0  0  0  0
   13.5395   -0.4523   -9.0736 H   0  0  0  0  0  0  0  0  0  0  0  0
   11.9252    0.0381   -8.6267 H   0  0  0  0  0  0  0  0  0  0  0  0
   14.5534    1.1741   -7.5689 H   0  0  0  0  0  0  0  0  0  0  0  0
   13.4865    0.1230   -6.6791 H   0  0  0  0  0  0  0  0  0  0  0  0
   14.6241    3.0142   -6.0619 H   0  0  0  0  0  0  0  0  0  0  0  0
   13.7903    1.9462   -4.9436 H   0  0  0  0  0  0  0  0  0  0  0  0
   13.2033    3.5902   -5.2050 H   0  0  0  0  0  0  0  0  0  0  0  0
   10.7373    1.4906   -7.2619 H   0  0  0  0  0  0  0  0  0  0  0  0
   11.8872    0.9929   -4.4904 H   0  0  0  0  0  0  0  0  0  0  0  0
   11.5635   -0.1800   -5.7612 H   0  0  0  0  0  0  0  0  0  0  0  0
    9.9282   -0.1877   -3.8911 H   0  0  0  0  0  0  0  0  0  0  0  0
    8.9770    0.2971   -6.5134 H   0  0  0  0  0  0  0  0  0  0  0  0
    9.8506    1.6220   -2.2053 H   0  0  0  0  0  0  0  0  0  0  0  0
    9.3949    3.2662   -2.6319 H   0  0  0  0  0  0  0  0  0  0  0  0
   10.9047    2.5818   -3.2164 H   0  0  0  0  0  0  0  0  0  0  0  0
  1  2  1  0  0  0  0
  1 32  1  0  0  0  0
  1 33  1  0  0  0  0
  1 34  1  0  0  0  0
  2  3  1  0  0  0  0
  2  5  1  0  0  0  0
  2 35  1  0  0  0  0
  3  4  1  0  0  0  0
  3 36  1  0  0  0  0
  3 37  1  0  0  0  0
  4 38  1  0  0  0  0
  5  6  1  0  0  0  0
  5 39  1  0  0  0  0
  5 40  1  0  0  0  0
  6  7  1  0  0  0  0
  6 41  1  0  0  0  0
  6 42  1  0  0  0  0
  7  8  1  0  0  0  0
  7 43  1  0  0  0  0
  7 44  1  0  0  0  0
  8  9  1  0  0  0  0
  8 10  1  0  0  0  0
  8 45  1  1  0  0  0
  9 46  1  0  0  0  0
  9 47  1  0  0  0  0
  9 48  1  0  0  0  0
 10 11  1  0  0  0  0
 10 30  1  0  0  0  0
 10 49  1  6  0  0  0
 11 12  1  0  0  0  0
 11 50  1  0  0  0  0
 11 51  1  0  0  0  0
 12 13  1  0  0  0  0
 12 52  1  0  0  0  0
 12 53  1  0  0  0  0
 13 14  1  0  0  0  0
 13 30  1  0  0  0  0
 13 54  1  6  0  0  0
 14 15  1  0  0  0  0
 14 26  1  0  0  0  0
 14 55  1  1  0  0  0
 15 16  1  0  0  0  0
 15 17  1  0  0  0  0
 15 56  1  1  0  0  0
 16 57  1  0  0  0  0
 17 18  1  0  0  0  0
 17 58  1  0  0  0  0
 17 59  1  0  0  0  0
 18 19  1  0  0  0  0
 18 24  1  0  0  0  0
 18 60  1  6  0  0  0
 19 20  1  0  0  0  0
 19 61  1  0  0  0  0
 19 62  1  0  0  0  0
 20 21  1  0  0  0  0
 20 22  1  0  0  0  0
 20 63  1  6  0  0  0
 21 64  1  0  0  0  0
 22 23  1  0  0  0  0
 22 65  1  0  0  0  0
 22 66  1  0  0  0  0
 23 24  1  0  0  0  0
 23 67  1  0  0  0  0
 23 68  1  0  0  0  0
 24 25  1  1  0  0  0
 24 26  1  0  0  0  0
 25 69  1  0  0  0  0
 25 70  1  0  0  0  0
 25 71  1  0  0  0  0
 26 27  1  0  0  0  0
 26 72  1  6  0  0  0
 27 28  1  0  0  0  0
 27 73  1  0  0  0  0
 27 74  1  0  0  0  0
 28 29  1  0  0  0  0
 28 30  1  0  0  0  0
 28 75  1  1  0  0  0
 29 76  1  0  0  0  0
 30 31  1  1  0  0  0
 31 77  1  0  0  0  0
 31 78  1  0  0  0  0
 31 79  1  0  0  0  0
M  END
$$$$
