CHEBI:15532
 OpenBabel04242412383D

125127  0  0  1  0  0  0  0  0999 V2000
   24.4198  -30.5835  -27.6201 C   0  0  0  0  0  0  0  0  0  0  0  0
   25.3492  -29.5014  -27.0929 C   0  0  0  0  0  0  0  0  0  0  0  0
   24.6029  -28.4986  -26.2102 C   0  0  0  0  0  0  0  0  0  0  0  0
   25.4829  -27.3366  -25.7348 C   0  0  0  0  0  0  0  0  0  0  0  0
   26.6368  -27.7847  -24.8324 C   0  0  0  0  0  0  0  0  0  0  0  0
   27.4636  -26.6283  -24.2593 C   0  0  0  0  0  0  0  0  0  0  0  0
   28.0704  -25.6698  -25.2909 C   0  0  0  0  0  0  0  0  0  0  0  0
   28.9062  -26.3678  -26.3670 C   0  0  0  0  0  0  0  0  0  0  0  0
   29.6733  -25.4277  -27.3049 C   0  0  0  0  0  0  0  0  0  0  0  0
   28.8587  -24.7643  -28.4269 C   0  0  0  0  0  0  0  0  0  0  0  0
   27.8166  -23.7162  -28.0276 C   0  0  0  0  0  0  0  0  0  0  0  0
   28.3920  -22.5535  -27.2165 C   0  0  0  0  0  0  0  0  0  0  0  0
   27.3373  -21.8193  -26.3996 C   0  0  0  0  0  0  0  0  0  0  0  0
   26.2710  -21.1305  -27.2168 C   0  0  0  0  0  0  0  0  0  0  0  0
   26.4893  -20.5012  -28.2451 O   0  0  0  0  0  0  0  0  0  0  0  0
   24.6451  -21.2125  -26.5431 S   0  0  0  0  0  0  0  0  0  0  0  0
   24.7954  -19.9280  -25.2621 C   0  0  0  0  0  0  0  0  0  0  0  0
   25.4042  -20.4610  -23.9666 C   0  0  0  0  0  0  0  0  0  0  0  0
   25.4655  -19.4455  -22.9294 N   0  0  0  0  0  0  0  0  0  0  0  0
   25.3082  -19.7798  -21.6003 C   0  0  0  0  0  0  0  0  0  0  0  0
   25.0074  -20.9075  -21.2246 O   0  0  0  0  0  0  0  0  0  0  0  0
   25.5091  -18.6170  -20.6519 C   0  0  0  0  0  0  0  0  0  0  0  0
   25.0238  -18.9952  -19.2526 C   0  0  0  0  0  0  0  0  0  0  0  0
   25.1355  -17.9690  -18.2204 N   0  0  0  0  0  0  0  0  0  0  0  0
   24.6724  -16.6746  -18.3879 C   0  0  0  0  0  0  0  0  0  0  0  0
   24.2371  -16.2455  -19.4538 O   0  0  0  0  0  0  0  0  0  0  0  0
   24.7542  -15.7745  -17.1236 C   0  0  2  0  0  0  0  0  0  0  0  0
   26.0055  -15.9410  -16.4452 O   0  0  0  0  0  0  0  0  0  0  0  0
   23.5832  -15.8596  -16.0929 C   0  0  0  0  0  0  0  0  0  0  0  0
   23.7676  -17.0316  -15.1102 C   0  0  0  0  0  0  0  0  0  0  0  0
   23.6130  -14.5661  -15.2365 C   0  0  0  0  0  0  0  0  0  0  0  0
   22.1823  -15.9246  -16.7504 C   0  0  0  0  0  0  0  0  0  0  0  0
   22.0783  -16.9336  -17.7233 O   0  0  0  0  0  0  0  0  0  0  0  0
   21.3772  -18.3415  -17.4669 P   0  0  0  0  0  0  0  0  0  0  0  0
   21.8577  -19.1095  -16.2857 O   0  0  0  0  0  0  0  0  0  0  0  0
   19.8160  -17.9754  -17.3539 O   0  0  0  0  0  0  0  0  0  0  0  0
   21.5076  -19.0556  -18.8685 O   0  0  0  0  0  0  0  0  0  0  0  0
   20.3080  -19.5107  -19.7911 P   0  0  0  0  0  0  0  0  0  0  0  0
   19.4497  -20.5770  -19.2012 O   0  0  0  0  0  0  0  0  0  0  0  0
   19.4880  -18.1386  -20.0300 O   0  0  0  0  0  0  0  0  0  0  0  0
   21.0000  -19.7975  -21.2096 O   0  0  0  0  0  0  0  0  0  0  0  0
   21.9797  -18.9344  -21.7493 C   0  0  0  0  0  0  0  0  0  0  0  0
   21.4139  -17.7189  -22.4727 C   0  0  1  0  0  0  0  0  0  0  0  0
   22.5040  -16.8823  -22.9171 O   0  0  0  0  0  0  0  0  0  0  0  0
   22.0143  -16.1933  -24.0821 C   0  0  1  0  0  0  0  0  0  0  0  0
   23.1291  -15.5387  -24.7304 N   0  0  0  0  0  0  0  0  0  0  0  0
   23.6446  -14.3347  -24.3041 C   0  0  0  0  0  0  0  0  0  0  0  0
   24.5847  -13.8806  -25.1041 N   0  0  0  0  0  0  0  0  0  0  0  0
   24.6934  -14.8386  -26.0886 C   0  0  0  0  0  0  0  0  0  0  0  0
   25.5050  -14.9222  -27.2333 C   0  0  0  0  0  0  0  0  0  0  0  0
   26.3979  -13.9283  -27.6103 N   0  0  0  0  0  0  0  0  0  0  0  0
   25.4262  -16.0293  -28.0022 N   0  0  0  0  0  0  0  0  0  0  0  0
   24.5477  -16.9907  -27.6518 C   0  0  0  0  0  0  0  0  0  0  0  0
   23.7173  -17.0171  -26.5880 N   0  0  0  0  0  0  0  0  0  0  0  0
   23.8291  -15.8993  -25.8506 C   0  0  0  0  0  0  0  0  0  0  0  0
   21.2198  -17.2552  -24.8397 C   0  0  2  0  0  0  0  0  0  0  0  0
   20.2936  -16.6862  -25.7574 O   0  0  0  0  0  0  0  0  0  0  0  0
   20.5622  -18.0546  -23.7061 C   0  0  2  0  0  0  0  0  0  0  0  0
   19.2285  -17.6122  -23.4973 O   0  0  0  0  0  0  0  0  0  0  0  0
   18.1448  -18.6689  -22.9820 P   0  0  0  0  0  0  0  0  0  0  0  0
   18.6298  -19.9698  -22.4567 O   0  0  0  0  0  0  0  0  0  0  0  0
   17.1637  -18.8551  -24.2228 O   0  0  0  0  0  0  0  0  0  0  0  0
   17.2724  -17.8380  -21.9402 O   0  0  0  0  0  0  0  0  0  0  0  0
   23.6270  -30.1536  -28.2400 H   0  0  0  0  0  0  0  0  0  0  0  0
   23.9542  -31.1351  -26.7972 H   0  0  0  0  0  0  0  0  0  0  0  0
   24.9805  -31.2972  -28.2322 H   0  0  0  0  0  0  0  0  0  0  0  0
   25.8134  -28.9811  -27.9386 H   0  0  0  0  0  0  0  0  0  0  0  0
   26.1521  -29.9842  -26.5262 H   0  0  0  0  0  0  0  0  0  0  0  0
   24.1759  -29.0148  -25.3419 H   0  0  0  0  0  0  0  0  0  0  0  0
   23.7600  -28.0814  -26.7754 H   0  0  0  0  0  0  0  0  0  0  0  0
   24.8525  -26.6264  -25.1856 H   0  0  0  0  0  0  0  0  0  0  0  0
   25.8666  -26.8048  -26.6126 H   0  0  0  0  0  0  0  0  0  0  0  0
   27.3050  -28.4601  -25.3765 H   0  0  0  0  0  0  0  0  0  0  0  0
   26.2305  -28.3632  -23.9934 H   0  0  0  0  0  0  0  0  0  0  0  0
   28.2712  -27.0504  -23.6487 H   0  0  0  0  0  0  0  0  0  0  0  0
   26.8338  -26.0453  -23.5754 H   0  0  0  0  0  0  0  0  0  0  0  0
   28.6945  -24.9414  -24.7590 H   0  0  0  0  0  0  0  0  0  0  0  0
   27.2529  -25.1051  -25.7376 H   0  0  0  0  0  0  0  0  0  0  0  0
   28.2844  -27.0395  -26.9681 H   0  0  0  0  0  0  0  0  0  0  0  0
   29.6460  -26.9996  -25.8580 H   0  0  0  0  0  0  0  0  0  0  0  0
   30.4398  -26.0376  -27.8029 H   0  0  0  0  0  0  0  0  0  0  0  0
   30.2326  -24.6870  -26.7250 H   0  0  0  0  0  0  0  0  0  0  0  0
   28.3549  -25.5478  -29.0069 H   0  0  0  0  0  0  0  0  0  0  0  0
   29.5680  -24.2873  -29.1155 H   0  0  0  0  0  0  0  0  0  0  0  0
   26.9864  -24.1973  -27.5055 H   0  0  0  0  0  0  0  0  0  0  0  0
   27.3726  -23.3096  -28.9457 H   0  0  0  0  0  0  0  0  0  0  0  0
   28.9089  -21.8601  -27.8898 H   0  0  0  0  0  0  0  0  0  0  0  0
   29.1387  -22.9093  -26.5013 H   0  0  0  0  0  0  0  0  0  0  0  0
   27.8365  -21.0409  -25.8109 H   0  0  0  0  0  0  0  0  0  0  0  0
   26.8828  -22.5257  -25.6953 H   0  0  0  0  0  0  0  0  0  0  0  0
   23.7861  -19.5560  -25.0561 H   0  0  0  0  0  0  0  0  0  0  0  0
   25.3795  -19.0857  -25.6445 H   0  0  0  0  0  0  0  0  0  0  0  0
   26.4367  -20.7845  -24.1112 H   0  0  0  0  0  0  0  0  0  0  0  0
   24.8344  -21.3241  -23.6051 H   0  0  0  0  0  0  0  0  0  0  0  0
   25.8837  -18.5473  -23.1497 H   0  0  0  0  0  0  0  0  0  0  0  0
   24.9522  -17.7676  -21.0569 H   0  0  0  0  0  0  0  0  0  0  0  0
   26.5705  -18.3513  -20.6337 H   0  0  0  0  0  0  0  0  0  0  0  0
   23.9788  -19.3137  -19.2783 H   0  0  0  0  0  0  0  0  0  0  0  0
   25.6004  -19.8521  -18.8846 H   0  0  0  0  0  0  0  0  0  0  0  0
   25.1199  -18.3342  -17.2773 H   0  0  0  0  0  0  0  0  0  0  0  0
   24.7847  -14.7531  -17.5254 H   0  0  0  0  0  0  0  0  0  0  0  0
   26.3353  -16.8358  -16.6349 H   0  0  0  0  0  0  0  0  0  0  0  0
   22.8744  -17.1651  -14.4882 H   0  0  0  0  0  0  0  0  0  0  0  0
   24.6056  -16.8568  -14.4259 H   0  0  0  0  0  0  0  0  0  0  0  0
   23.9618  -17.9739  -15.6221 H   0  0  0  0  0  0  0  0  0  0  0  0
   24.5649  -14.4570  -14.7050 H   0  0  0  0  0  0  0  0  0  0  0  0
   22.8118  -14.5662  -14.4888 H   0  0  0  0  0  0  0  0  0  0  0  0
   23.4809  -13.6754  -15.8622 H   0  0  0  0  0  0  0  0  0  0  0  0
   21.9790  -14.9782  -17.2659 H   0  0  0  0  0  0  0  0  0  0  0  0
   21.3928  -16.0454  -15.9994 H   0  0  0  0  0  0  0  0  0  0  0  0
   19.4201  -18.5330  -16.6464 H   0  0  0  0  0  0  0  0  0  0  0  0
   19.1660  -17.8293  -19.1503 H   0  0  0  0  0  0  0  0  0  0  0  0
   22.5839  -19.5217  -22.4479 H   0  0  0  0  0  0  0  0  0  0  0  0
   22.6612  -18.6000  -20.9663 H   0  0  0  0  0  0  0  0  0  0  0  0
   20.8318  -17.1165  -21.7681 H   0  0  0  0  0  0  0  0  0  0  0  0
   21.3394  -15.3902  -23.7525 H   0  0  0  0  0  0  0  0  0  0  0  0
   23.2875  -13.8366  -23.4106 H   0  0  0  0  0  0  0  0  0  0  0  0
   26.6595  -13.3028  -26.8576 H   0  0  0  0  0  0  0  0  0  0  0  0
   27.1225  -14.2720  -28.2258 H   0  0  0  0  0  0  0  0  0  0  0  0
   24.5137  -17.8588  -28.3057 H   0  0  0  0  0  0  0  0  0  0  0  0
   21.8766  -17.9407  -25.3798 H   0  0  0  0  0  0  0  0  0  0  0  0
   19.6258  -17.3631  -25.9693 H   0  0  0  0  0  0  0  0  0  0  0  0
   20.5648  -19.1208  -23.9565 H   0  0  0  0  0  0  0  0  0  0  0  0
   16.6381  -19.6678  -24.1022 H   0  0  0  0  0  0  0  0  0  0  0  0
   17.7652  -17.7711  -21.0987 H   0  0  0  0  0  0  0  0  0  0  0  0
  1  2  1  0  0  0  0
  1 64  1  0  0  0  0
  1 65  1  0  0  0  0
  1 66  1  0  0  0  0
  2  3  1  0  0  0  0
  2 67  1  0  0  0  0
  2 68  1  0  0  0  0
  3  4  1  0  0  0  0
  3 69  1  0  0  0  0
  3 70  1  0  0  0  0
  4  5  1  0  0  0  0
  4 71  1  0  0  0  0
  4 72  1  0  0  0  0
  5  6  1  0  0  0  0
  5 73  1  0  0  0  0
  5 74  1  0  0  0  0
  6  7  1  0  0  0  0
  6 75  1  0  0  0  0
  6 76  1  0  0  0  0
  7  8  1  0  0  0  0
  7 77  1  0  0  0  0
  7 78  1  0  0  0  0
  8  9  1  0  0  0  0
  8 79  1  0  0  0  0
  8 80  1  0  0  0  0
  9 10  1  0  0  0  0
  9 81  1  0  0  0  0
  9 82  1  0  0  0  0
 10 11  1  0  0  0  0
 10 83  1  0  0  0  0
 10 84  1  0  0  0  0
 11 12  1  0  0  0  0
 11 85  1  0  0  0  0
 11 86  1  0  0  0  0
 12 13  1  0  0  0  0
 12 87  1  0  0  0  0
 12 88  1  0  0  0  0
 13 14  1  0  0  0  0
 13 89  1  0  0  0  0
 13 90  1  0  0  0  0
 14 15  2  0  0  0  0
 14 16  1  0  0  0  0
 16 17  1  0  0  0  0
 17 18  1  0  0  0  0
 17 91  1  0  0  0  0
 17 92  1  0  0  0  0
 18 19  1  0  0  0  0
 18 93  1  0  0  0  0
 18 94  1  0  0  0  0
 19 20  1  0  0  0  0
 19 95  1  0  0  0  0
 20 21  2  0  0  0  0
 20 22  1  0  0  0  0
 22 23  1  0  0  0  0
 22 96  1  0  0  0  0
 22 97  1  0  0  0  0
 23 24  1  0  0  0  0
 23 98  1  0  0  0  0
 23 99  1  0  0  0  0
 24 25  1  0  0  0  0
 24100  1  0  0  0  0
 25 26  2  0  0  0  0
 27 29  1  0  0  0  0
 27 28  1  0  0  0  0
 27 25  1  0  0  0  0
 27101  1  6  0  0  0
 28102  1  0  0  0  0
 29 30  1  0  0  0  0
 29 31  1  0  0  0  0
 29 32  1  0  0  0  0
 30103  1  0  0  0  0
 30104  1  0  0  0  0
 30105  1  0  0  0  0
 31106  1  0  0  0  0
 31107  1  0  0  0  0
 31108  1  0  0  0  0
 32 33  1  0  0  0  0
 32109  1  0  0  0  0
 32110  1  0  0  0  0
 33 34  1  0  0  0  0
 34 35  2  0  0  0  0
 34 36  1  0  0  0  0
 34 37  1  0  0  0  0
 36111  1  0  0  0  0
 37 38  1  0  0  0  0
 38 39  2  0  0  0  0
 38 40  1  0  0  0  0
 38 41  1  0  0  0  0
 40112  1  0  0  0  0
 41 42  1  0  0  0  0
 42113  1  0  0  0  0
 42114  1  0  0  0  0
 43 44  1  0  0  0  0
 43 58  1  0  0  0  0
 43 42  1  0  0  0  0
 43115  1  1  0  0  0
 44 45  1  0  0  0  0
 45 56  1  0  0  0  0
 45 46  1  0  0  0  0
 45116  1  1  0  0  0
 46 47  1  0  0  0  0
 46 55  1  0  0  0  0
 47 48  2  0  0  0  0
 47117  1  0  0  0  0
 48 49  1  0  0  0  0
 49 50  1  0  0  0  0
 49 55  2  0  0  0  0
 50 51  1  0  0  0  0
 50 52  2  0  0  0  0
 51118  1  0  0  0  0
 51119  1  0  0  0  0
 52 53  1  0  0  0  0
 53 54  2  0  0  0  0
 53120  1  0  0  0  0
 54 55  1  0  0  0  0
 56 57  1  0  0  0  0
 56 58  1  0  0  0  0
 56121  1  6  0  0  0
 57122  1  0  0  0  0
 58 59  1  0  0  0  0
 58123  1  6  0  0  0
 59 60  1  0  0  0  0
 60 61  2  0  0  0  0
 60 62  1  0  0  0  0
 60 63  1  0  0  0  0
 62124  1  0  0  0  0
 63125  1  0  0  0  0
M  END
$$$$
