CHEBI:16639
 OpenBabel04242414583D

 18 18  0  0  0  0  0  0  0  0999 V2000
    3.4530   -0.0718    1.0435 C   0  0  0  0  0  0  0  0  0  0  0  0
    3.1577   -0.3049   -0.3266 O   0  0  0  0  0  0  0  0  0  0  0  0
    3.8108   -1.3523   -0.9207 C   0  0  0  0  0  0  0  0  0  0  0  0
    4.7306   -2.2005   -0.3038 C   0  0  0  0  0  0  0  0  0  0  0  0
    5.3279   -3.2384   -1.0299 C   0  0  0  0  0  0  0  0  0  0  0  0
    5.0211   -3.4503   -2.3830 C   0  0  0  0  0  0  0  0  0  0  0  0
    5.6725   -4.5769   -3.1628 C   0  0  0  0  0  0  0  0  0  0  0  0
    5.3443   -4.7025   -4.3849 O   0  0  0  0  0  0  0  0  0  0  0  0
    6.4990   -5.3123   -2.5351 O   0  5  0  0  0  0  0  0  0  0  0  0
    4.0950   -2.5897   -2.9904 C   0  0  0  0  0  0  0  0  0  0  0  0
    3.4972   -1.5531   -2.2664 C   0  0  0  0  0  0  0  0  0  0  0  0
    2.8596    0.7873    1.3714 H   0  0  0  0  0  0  0  0  0  0  0  0
    4.5090    0.1824    1.1835 H   0  0  0  0  0  0  0  0  0  0  0  0
    3.1655   -0.9284    1.6623 H   0  0  0  0  0  0  0  0  0  0  0  0
    5.0114   -2.0913    0.7367 H   0  0  0  0  0  0  0  0  0  0  0  0
    6.0452   -3.8984   -0.5436 H   0  0  0  0  0  0  0  0  0  0  0  0
    3.8434   -2.7370   -4.0395 H   0  0  0  0  0  0  0  0  0  0  0  0
    2.7833   -0.9019   -2.7614 H   0  0  0  0  0  0  0  0  0  0  0  0
  1  2  1  0  0  0  0
  1 12  1  0  0  0  0
  1 13  1  0  0  0  0
  1 14  1  0  0  0  0
  2  3  1  0  0  0  0
  3  4  1  0  0  0  0
  3 11  2  0  0  0  0
  4  5  2  0  0  0  0
  4 15  1  0  0  0  0
  5  6  1  0  0  0  0
  5 16  1  0  0  0  0
  6  7  1  0  0  0  0
  6 10  2  0  0  0  0
  7  8  2  0  0  0  0
  7  9  1  0  0  0  0
 10 11  1  0  0  0  0
 10 17  1  0  0  0  0
 11 18  1  0  0  0  0
M  CHG  1   9  -1
M  END
$$$$
