CHEBI:17394
 OpenBabel04242416283D

 26 25  0  0  1  0  0  0  0  0999 V2000
    7.6859    7.1152    4.3251 C   0  0  0  0  0  0  0  0  0  0  0  0
    7.8100    6.6014    5.7481 C   0  0  0  0  0  0  0  0  0  0  0  0
    6.9059    5.5027    6.0189 N   0  0  0  0  0  0  0  0  0  0  0  0
    7.1558    4.2301    5.5592 C   0  0  0  0  0  0  0  0  0  0  0  0
    8.1389    3.9353    4.8873 O   0  0  0  0  0  0  0  0  0  0  0  0
    6.1144    3.2185    5.9975 C   0  0  0  0  0  0  0  0  0  0  0  0
    6.4298    1.7881    5.5545 C   0  0  0  0  0  0  0  0  0  0  0  0
    7.5028    1.0756    6.3941 C   0  0  2  0  0  0  0  0  0  0  0  0
    8.8491    1.7141    6.3336 N   0  0  0  0  0  0  0  0  0  0  0  0
    7.6551   -0.3825    5.9130 C   0  0  0  0  0  0  0  0  0  0  0  0
    6.7385   -1.1685    5.7352 O   0  0  0  0  0  0  0  0  0  0  0  0
    8.9640   -0.7029    5.7314 O   0  0  0  0  0  0  0  0  0  0  0  0
    8.3700    7.9540    4.1640 H   0  0  0  0  0  0  0  0  0  0  0  0
    6.6663    7.4564    4.1195 H   0  0  0  0  0  0  0  0  0  0  0  0
    7.9294    6.3353    3.5964 H   0  0  0  0  0  0  0  0  0  0  0  0
    7.5745    7.3987    6.4600 H   0  0  0  0  0  0  0  0  0  0  0  0
    8.8353    6.2649    5.9368 H   0  0  0  0  0  0  0  0  0  0  0  0
    6.0256    5.7033    6.4772 H   0  0  0  0  0  0  0  0  0  0  0  0
    5.1613    3.5227    5.5475 H   0  0  0  0  0  0  0  0  0  0  0  0
    6.0026    3.2642    7.0867 H   0  0  0  0  0  0  0  0  0  0  0  0
    6.7081    1.7692    4.4926 H   0  0  0  0  0  0  0  0  0  0  0  0
    5.5000    1.2081    5.6279 H   0  0  0  0  0  0  0  0  0  0  0  0
    7.2025    1.0254    7.4470 H   0  0  0  0  0  0  0  0  0  0  0  0
    8.8751    2.4740    7.0202 H   0  0  0  0  0  0  0  0  0  0  0  0
    8.9078    2.2444    5.4442 H   0  0  0  0  0  0  0  0  0  0  0  0
    9.4608    0.1285    5.9511 H   0  0  0  0  0  0  0  0  0  0  0  0
  1  2  1  0  0  0  0
  1 13  1  0  0  0  0
  1 14  1  0  0  0  0
  1 15  1  0  0  0  0
  2  3  1  0  0  0  0
  2 16  1  0  0  0  0
  2 17  1  0  0  0  0
  3  4  1  0  0  0  0
  3 18  1  0  0  0  0
  4  5  2  0  0  0  0
  4  6  1  0  0  0  0
  6  7  1  0  0  0  0
  6 19  1  0  0  0  0
  6 20  1  0  0  0  0
  7 21  1  0  0  0  0
  7 22  1  0  0  0  0
  8 10  1  0  0  0  0
  8  9  1  0  0  0  0
  8  7  1  0  0  0  0
  8 23  1  1  0  0  0
  9 24  1  0  0  0  0
  9 25  1  0  0  0  0
 10 11  2  0  0  0  0
 10 12  1  0  0  0  0
 12 26  1  0  0  0  0
M  END
$$$$
