CHEBI:9678
 OpenBabel04242411403D

 44 45  0  0  0  0  0  0  0  0999 V2000
    5.9927   -2.4730    0.0629 C   0  0  0  0  0  0  0  0  0  0  0  0
    5.9284   -1.2829   -0.7212 O   0  0  0  0  0  0  0  0  0  0  0  0
    4.6760   -0.7988   -0.8975 C   0  0  0  0  0  0  0  0  0  0  0  0
    3.6262   -1.2759   -0.5027 O   0  0  0  0  0  0  0  0  0  0  0  0
    4.7696    0.4348   -1.6974 C   0  0  0  0  0  0  0  0  0  0  0  0
    5.4168    0.3643   -2.9430 C   0  0  0  0  0  0  0  0  0  0  0  0
    5.4826    1.4875   -3.7684 C   0  0  0  0  0  0  0  0  0  0  0  0
    4.9058    2.6863   -3.3567 C   0  0  0  0  0  0  0  0  0  0  0  0
    4.2693    2.7655   -2.1169 C   0  0  0  0  0  0  0  0  0  0  0  0
    4.1860    1.6350   -1.2887 C   0  0  0  0  0  0  0  0  0  0  0  0
    3.4546    1.8172    0.3155 S   0  0  0  0  0  0  0  0  0  0  0  0
    4.1412    0.9294    1.2328 O   0  0  0  0  0  0  0  0  0  0  0  0
    3.3898    3.2290    0.6266 O   0  0  0  0  0  0  0  0  0  0  0  0
    1.9094    1.2483    0.1296 N   0  0  0  0  0  0  0  0  0  0  0  0
    0.9200    1.9013   -0.6014 C   0  0  0  0  0  0  0  0  0  0  0  0
    1.2379    2.7502   -1.4264 O   0  0  0  0  0  0  0  0  0  0  0  0
   -0.4107    1.5980   -0.3556 N   0  0  0  0  0  0  0  0  0  0  0  0
   -1.4314    2.3993   -1.0191 C   0  0  0  0  0  0  0  0  0  0  0  0
   -0.8802    0.6358    0.5684 C   0  0  0  0  0  0  0  0  0  0  0  0
   -2.1732    0.7035    0.8977 N   0  0  0  0  0  0  0  0  0  0  0  0
   -2.6109   -0.1838    1.7876 C   0  0  0  0  0  0  0  0  0  0  0  0
   -4.0315   -0.0715    2.2451 C   0  0  0  0  0  0  0  0  0  0  0  0
   -1.8735   -1.1665    2.2824 N   0  0  0  0  0  0  0  0  0  0  0  0
   -0.6113   -1.1726    1.8736 C   0  0  0  0  0  0  0  0  0  0  0  0
    0.1240   -2.2271    2.3682 O   0  0  0  0  0  0  0  0  0  0  0  0
    1.4866   -2.2237    1.9685 C   0  0  0  0  0  0  0  0  0  0  0  0
   -0.0463   -0.2823    1.0543 N   0  0  0  0  0  0  0  0  0  0  0  0
    5.5481   -2.3123    1.0497 H   0  0  0  0  0  0  0  0  0  0  0  0
    7.0470   -2.7325    0.1959 H   0  0  0  0  0  0  0  0  0  0  0  0
    5.4965   -3.2967   -0.4590 H   0  0  0  0  0  0  0  0  0  0  0  0
    5.8654   -0.5692   -3.2773 H   0  0  0  0  0  0  0  0  0  0  0  0
    5.9801    1.4266   -4.7337 H   0  0  0  0  0  0  0  0  0  0  0  0
    4.9514    3.5635   -3.9986 H   0  0  0  0  0  0  0  0  0  0  0  0
    3.8266    3.7120   -1.8077 H   0  0  0  0  0  0  0  0  0  0  0  0
    1.6745    0.4320    0.6891 H   0  0  0  0  0  0  0  0  0  0  0  0
   -1.0067    3.0941   -1.7490 H   0  0  0  0  0  0  0  0  0  0  0  0
   -1.9747    2.9915   -0.2751 H   0  0  0  0  0  0  0  0  0  0  0  0
   -2.1224    1.7380   -1.5530 H   0  0  0  0  0  0  0  0  0  0  0  0
   -4.3970    0.9530    2.1200 H   0  0  0  0  0  0  0  0  0  0  0  0
   -4.1123   -0.3316    3.3052 H   0  0  0  0  0  0  0  0  0  0  0  0
   -4.6664   -0.7453    1.6637 H   0  0  0  0  0  0  0  0  0  0  0  0
    1.9541   -3.1263    2.3741 H   0  0  0  0  0  0  0  0  0  0  0  0
    2.0110   -1.3580    2.3857 H   0  0  0  0  0  0  0  0  0  0  0  0
    1.5834   -2.2621    0.8792 H   0  0  0  0  0  0  0  0  0  0  0  0
  1  2  1  0  0  0  0
  1 28  1  0  0  0  0
  1 29  1  0  0  0  0
  1 30  1  0  0  0  0
  2  3  1  0  0  0  0
  3  4  2  0  0  0  0
  3  5  1  0  0  0  0
  5  6  1  0  0  0  0
  5 10  2  0  0  0  0
  6  7  2  0  0  0  0
  6 31  1  0  0  0  0
  7  8  1  0  0  0  0
  7 32  1  0  0  0  0
  8  9  2  0  0  0  0
  8 33  1  0  0  0  0
  9 10  1  0  0  0  0
  9 34  1  0  0  0  0
 10 11  1  0  0  0  0
 11 12  2  0  0  0  0
 11 13  2  0  0  0  0
 11 14  1  0  0  0  0
 14 15  1  0  0  0  0
 14 35  1  0  0  0  0
 15 16  2  0  0  0  0
 15 17  1  0  0  0  0
 17 18  1  0  0  0  0
 17 19  1  0  0  0  0
 18 36  1  0  0  0  0
 18 37  1  0  0  0  0
 18 38  1  0  0  0  0
 19 20  1  0  0  0  0
 19 27  2  0  0  0  0
 20 21  2  0  0  0  0
 21 22  1  0  0  0  0
 21 23  1  0  0  0  0
 22 39  1  0  0  0  0
 22 40  1  0  0  0  0
 22 41  1  0  0  0  0
 23 24  2  0  0  0  0
 24 25  1  0  0  0  0
 24 27  1  0  0  0  0
 25 26  1  0  0  0  0
 26 42  1  0  0  0  0
 26 43  1  0  0  0  0
 26 44  1  0  0  0  0
M  END
$$$$
