CHEBI:15635
 OpenBabel04242412573D

 55 57  0  0  1  0  0  0  0  0999 V2000
   -2.8816   -0.7555    0.7594 N   0  0  0  0  0  0  0  0  0  0  0  0
   -1.5923   -0.4214    0.5056 C   0  0  0  0  0  0  0  0  0  0  0  0
   -1.1585    0.7606    0.7968 N   0  0  0  0  0  0  0  0  0  0  0  0
    0.1527    1.0617    0.5300 C   0  0  0  0  0  0  0  0  0  0  0  0
    1.0188    0.1855   -0.0439 C   0  0  0  0  0  0  0  0  0  0  0  0
    0.5036   -1.1858   -0.3216 C   0  0  0  0  0  0  0  0  0  0  0  0
    1.2352   -2.0836   -0.7338 O   0  0  0  0  0  0  0  0  0  0  0  0
   -0.8185   -1.3798   -0.0628 N   0  0  0  0  0  0  0  0  0  0  0  0
    2.3607    0.4811   -0.3448 N   0  0  0  0  0  0  0  0  0  0  0  0
    2.9489    1.6794    0.2996 C   0  0  1  0  0  0  0  0  0  0  0  0
    4.2169    2.1501   -0.4385 C   0  0  0  0  0  0  0  0  0  0  0  0
    5.2779    1.1462   -0.3178 N   0  0  0  0  0  0  0  0  0  0  0  0
    6.5933    1.4349   -0.6749 C   0  0  0  0  0  0  0  0  0  0  0  0
    7.0769    2.7237   -0.9220 C   0  0  0  0  0  0  0  0  0  0  0  0
    8.4266    2.9480   -1.2164 C   0  0  0  0  0  0  0  0  0  0  0  0
    9.3249    1.8805   -1.2489 C   0  0  0  0  0  0  0  0  0  0  0  0
   10.7278    2.1498   -1.6577 C   0  0  0  0  0  0  0  0  0  0  0  0
   11.2102    3.2779   -1.6293 O   0  0  0  0  0  0  0  0  0  0  0  0
   11.4144    1.1045   -2.2258 N   0  0  0  0  0  0  0  0  0  0  0  0
   12.7882    1.2351   -2.7187 C   0  0  1  0  0  0  0  0  0  0  0  0
   13.4688   -0.1395   -2.8063 C   0  0  0  0  0  0  0  0  0  0  0  0
   12.7938   -1.1120   -3.7755 C   0  0  0  0  0  0  0  0  0  0  0  0
   13.5731   -2.3966   -3.8483 C   0  0  0  0  0  0  0  0  0  0  0  0
   13.2998   -3.3872   -3.1917 O   0  0  0  0  0  0  0  0  0  0  0  0
   14.6286   -2.3351   -4.6877 O   0  0  0  0  0  0  0  0  0  0  0  0
   12.8943    1.9958   -4.0579 C   0  0  0  0  0  0  0  0  0  0  0  0
   13.6233    1.6486   -4.9801 O   0  0  0  0  0  0  0  0  0  0  0  0
   12.1857    3.1465   -4.1070 O   0  0  0  0  0  0  0  0  0  0  0  0
    8.8766    0.5972   -0.9288 C   0  0  0  0  0  0  0  0  0  0  0  0
    7.5238    0.3855   -0.6451 C   0  0  0  0  0  0  0  0  0  0  0  0
    1.8932    2.8220    0.3306 C   0  0  0  0  0  0  0  0  0  0  0  0
    0.6268    2.3286    0.8753 N   0  0  0  0  0  0  0  0  0  0  0  0
   -3.4336    0.0613    1.0045 H   0  0  0  0  0  0  0  0  0  0  0  0
   -3.3373   -1.3375    0.0696 H   0  0  0  0  0  0  0  0  0  0  0  0
   -1.1725   -2.3108   -0.2015 H   0  0  0  0  0  0  0  0  0  0  0  0
    2.9227   -0.3682   -0.3011 H   0  0  0  0  0  0  0  0  0  0  0  0
    3.2083    1.4078    1.3319 H   0  0  0  0  0  0  0  0  0  0  0  0
    4.0013    2.3289   -1.4992 H   0  0  0  0  0  0  0  0  0  0  0  0
    4.5334    3.0944    0.0177 H   0  0  0  0  0  0  0  0  0  0  0  0
    4.9861    0.2348   -0.6670 H   0  0  0  0  0  0  0  0  0  0  0  0
    6.4186    3.5863   -0.9112 H   0  0  0  0  0  0  0  0  0  0  0  0
    8.7640    3.9601   -1.4303 H   0  0  0  0  0  0  0  0  0  0  0  0
   10.8802    0.2927   -2.5069 H   0  0  0  0  0  0  0  0  0  0  0  0
   13.3435    1.8413   -1.9907 H   0  0  0  0  0  0  0  0  0  0  0  0
   13.4909   -0.5938   -1.8069 H   0  0  0  0  0  0  0  0  0  0  0  0
   14.5181   -0.0040   -3.0999 H   0  0  0  0  0  0  0  0  0  0  0  0
   12.6900   -0.7054   -4.7862 H   0  0  0  0  0  0  0  0  0  0  0  0
   11.7807   -1.3655   -3.4448 H   0  0  0  0  0  0  0  0  0  0  0  0
   14.7279   -1.4757   -5.1450 H   0  0  0  0  0  0  0  0  0  0  0  0
   11.7925    3.3889   -3.2324 H   0  0  0  0  0  0  0  0  0  0  0  0
    9.5560   -0.2482   -0.8733 H   0  0  0  0  0  0  0  0  0  0  0  0
    7.1954   -0.6193   -0.3849 H   0  0  0  0  0  0  0  0  0  0  0  0
    1.7154    3.2052   -0.6817 H   0  0  0  0  0  0  0  0  0  0  0  0
    2.2540    3.6531    0.9457 H   0  0  0  0  0  0  0  0  0  0  0  0
   -0.1394    2.9898    0.9462 H   0  0  0  0  0  0  0  0  0  0  0  0
  1  2  1  0  0  0  0
  1 33  1  0  0  0  0
  1 34  1  0  0  0  0
  2  3  2  0  0  0  0
  2  8  1  0  0  0  0
  3  4  1  0  0  0  0
  4  5  2  0  0  0  0
  4 32  1  0  0  0  0
  5  6  1  0  0  0  0
  5  9  1  0  0  0  0
  6  7  2  0  0  0  0
  6  8  1  0  0  0  0
  8 35  1  0  0  0  0
  9 10  1  0  0  0  0
  9 36  1  0  0  0  0
 10 31  1  0  0  0  0
 10 11  1  0  0  0  0
 10 37  1  1  0  0  0
 11 12  1  0  0  0  0
 11 38  1  0  0  0  0
 11 39  1  0  0  0  0
 12 13  1  0  0  0  0
 12 40  1  0  0  0  0
 13 14  1  0  0  0  0
 13 30  2  0  0  0  0
 14 15  2  0  0  0  0
 14 41  1  0  0  0  0
 15 16  1  0  0  0  0
 15 42  1  0  0  0  0
 16 17  1  0  0  0  0
 16 29  2  0  0  0  0
 17 18  2  0  0  0  0
 17 19  1  0  0  0  0
 19 20  1  0  0  0  0
 19 43  1  0  0  0  0
 20 21  1  0  0  0  0
 20 26  1  0  0  0  0
 20 44  1  1  0  0  0
 21 22  1  0  0  0  0
 21 45  1  0  0  0  0
 21 46  1  0  0  0  0
 22 23  1  0  0  0  0
 22 47  1  0  0  0  0
 22 48  1  0  0  0  0
 23 24  2  0  0  0  0
 23 25  1  0  0  0  0
 25 49  1  0  0  0  0
 26 27  2  0  0  0  0
 26 28  1  0  0  0  0
 28 50  1  0  0  0  0
 29 30  1  0  0  0  0
 29 51  1  0  0  0  0
 30 52  1  0  0  0  0
 31 32  1  0  0  0  0
 31 53  1  0  0  0  0
 31 54  1  0  0  0  0
 32 55  1  0  0  0  0
M  END
$$$$
