CHEBI:17260
 OpenBabel04242416073D

 19 18  0  0  0  0  0  0  0  0999 V2000
    1.6175    0.7681    1.7060 C   0  0  0  0  0  0  0  0  0  0  0  0
    3.0226    0.8712    1.1360 C   0  0  0  0  0  0  0  0  0  0  0  0
    3.2995   -0.2363    0.1237 C   0  0  0  0  0  0  0  0  0  0  0  0
    4.7192   -0.1747   -0.3781 C   0  0  0  0  0  0  0  0  0  0  0  0
    5.3741    0.8478   -0.5338 O   0  0  0  0  0  0  0  0  0  0  0  0
    5.1698   -1.4000   -0.6964 O   0  0  0  0  0  0  0  0  0  0  0  0
    6.6930   -1.5983   -1.1251 P   0  0  0  0  0  0  0  0  0  0  0  0
    7.7243   -1.4816   -0.0572 O   0  0  0  0  0  0  0  0  0  0  0  0
    6.6994   -3.0290   -1.8400 O   0  0  0  0  0  0  0  0  0  0  0  0
    6.9103   -0.6212   -2.3708 O   0  0  0  0  0  0  0  0  0  0  0  0
    1.4442    1.5670    2.4337 H   0  0  0  0  0  0  0  0  0  0  0  0
    1.4692   -0.1906    2.2133 H   0  0  0  0  0  0  0  0  0  0  0  0
    0.8660    0.8589    0.9153 H   0  0  0  0  0  0  0  0  0  0  0  0
    3.7508    0.8182    1.9544 H   0  0  0  0  0  0  0  0  0  0  0  0
    3.1502    1.8526    0.6639 H   0  0  0  0  0  0  0  0  0  0  0  0
    2.6283   -0.1572   -0.7381 H   0  0  0  0  0  0  0  0  0  0  0  0
    3.1356   -1.2096    0.6009 H   0  0  0  0  0  0  0  0  0  0  0  0
    7.6134   -3.3224   -2.0046 H   0  0  0  0  0  0  0  0  0  0  0  0
    6.9302    0.3094   -2.0626 H   0  0  0  0  0  0  0  0  0  0  0  0
  1  2  1  0  0  0  0
  1 11  1  0  0  0  0
  1 12  1  0  0  0  0
  1 13  1  0  0  0  0
  2  3  1  0  0  0  0
  2 14  1  0  0  0  0
  2 15  1  0  0  0  0
  3  4  1  0  0  0  0
  3 16  1  0  0  0  0
  3 17  1  0  0  0  0
  4  5  2  0  0  0  0
  4  6  1  0  0  0  0
  6  7  1  0  0  0  0
  7  8  2  0  0  0  0
  7  9  1  0  0  0  0
  7 10  1  0  0  0  0
  9 18  1  0  0  0  0
 10 19  1  0  0  0  0
M  END
$$$$
