CHEBI:2030
 OpenBabel04242410363D

 15 15  0  0  0  0  0  0  0  0999 V2000
    1.3141   -0.5455    0.5303 N   0  0  0  0  0  0  0  0  0  0  0  0
    2.5606   -0.1100    0.1532 C   0  0  0  0  0  0  0  0  0  0  0  0
    3.0172   -0.4442   -0.9364 O   0  0  0  0  0  0  0  0  0  0  0  0
    3.2329    0.7820    1.1009 C   0  0  0  0  0  0  0  0  0  0  0  0
    4.2769    1.6177    0.7255 N   0  0  0  0  0  0  0  0  0  0  0  0
    4.6055    2.2909    1.8013 C   0  0  0  0  0  0  0  0  0  0  0  0
    3.8323    1.9360    2.8666 N   0  0  0  0  0  0  0  0  0  0  0  0
    2.9694    0.9550    2.4553 C   0  0  0  0  0  0  0  0  0  0  0  0
    2.1189    0.3771    3.3349 N   0  0  0  0  0  0  0  0  0  0  0  0
    0.7770   -0.9899   -0.2011 H   0  0  0  0  0  0  0  0  0  0  0  0
    0.8204   -0.0226    1.2421 H   0  0  0  0  0  0  0  0  0  0  0  0
    5.3840    3.0391    1.8687 H   0  0  0  0  0  0  0  0  0  0  0  0
    3.8981    2.3193    3.7968 H   0  0  0  0  0  0  0  0  0  0  0  0
    2.2542    0.4910    4.3377 H   0  0  0  0  0  0  0  0  0  0  0  0
    1.7812   -0.5632    3.1232 H   0  0  0  0  0  0  0  0  0  0  0  0
  1  2  1  0  0  0  0
  1 10  1  0  0  0  0
  1 11  1  0  0  0  0
  2  3  2  0  0  0  0
  2  4  1  0  0  0  0
  4  5  1  0  0  0  0
  4  8  2  0  0  0  0
  5  6  2  0  0  0  0
  6  7  1  0  0  0  0
  6 12  1  0  0  0  0
  7  8  1  0  0  0  0
  7 13  1  0  0  0  0
  8  9  1  0  0  0  0
  9 14  1  0  0  0  0
  9 15  1  0  0  0  0
M  END
$$$$
