CHEBI:17130
 OpenBabel04242415543D

 31 30  0  0  0  0  0  0  0  0999 V2000
    2.2405   -2.9479    1.0219 O   0  0  0  0  0  0  0  0  0  0  0  0
    3.0022   -2.3545    0.2649 C   0  0  0  0  0  0  0  0  0  0  0  0
    3.6741   -1.0538    0.6195 C   0  0  0  0  0  0  0  0  0  0  0  0
    5.1809   -1.2201    0.7866 C   0  0  0  0  0  0  0  0  0  0  0  0
    5.9075   -1.4783   -0.5368 C   0  0  0  0  0  0  0  0  0  0  0  0
    7.4238   -1.5085   -0.3341 C   0  0  0  0  0  0  0  0  0  0  0  0
    8.1607   -1.7923   -1.6442 C   0  0  0  0  0  0  0  0  0  0  0  0
    9.6761   -1.7815   -1.4362 C   0  0  0  0  0  0  0  0  0  0  0  0
   10.4234   -2.0676   -2.7387 C   0  0  0  0  0  0  0  0  0  0  0  0
   11.9352   -2.0848   -2.5165 C   0  0  0  0  0  0  0  0  0  0  0  0
   12.6830   -2.3971   -3.7917 C   0  0  0  0  0  0  0  0  0  0  0  0
   12.2437   -2.2409   -4.9201 O   0  0  0  0  0  0  0  0  0  0  0  0
   13.9391   -2.8442   -3.5620 O   0  0  0  0  0  0  0  0  0  0  0  0
    3.2275   -2.7571   -0.7370 H   0  0  0  0  0  0  0  0  0  0  0  0
    3.2407   -0.6971    1.5608 H   0  0  0  0  0  0  0  0  0  0  0  0
    3.4356   -0.3175   -0.1547 H   0  0  0  0  0  0  0  0  0  0  0  0
    5.3901   -2.0410    1.4837 H   0  0  0  0  0  0  0  0  0  0  0  0
    5.5796   -0.3042    1.2398 H   0  0  0  0  0  0  0  0  0  0  0  0
    5.6504   -0.6942   -1.2590 H   0  0  0  0  0  0  0  0  0  0  0  0
    5.5801   -2.4334   -0.9634 H   0  0  0  0  0  0  0  0  0  0  0  0
    7.6811   -2.2775    0.4045 H   0  0  0  0  0  0  0  0  0  0  0  0
    7.7569   -0.5458    0.0725 H   0  0  0  0  0  0  0  0  0  0  0  0
    7.8864   -1.0397   -2.3933 H   0  0  0  0  0  0  0  0  0  0  0  0
    7.8494   -2.7682   -2.0363 H   0  0  0  0  0  0  0  0  0  0  0  0
    9.9475   -2.5322   -0.6839 H   0  0  0  0  0  0  0  0  0  0  0  0
    9.9858   -0.8049   -1.0444 H   0  0  0  0  0  0  0  0  0  0  0  0
   10.1650   -1.3079   -3.4869 H   0  0  0  0  0  0  0  0  0  0  0  0
   10.1021   -3.0340   -3.1472 H   0  0  0  0  0  0  0  0  0  0  0  0
   12.1754   -2.8502   -1.7699 H   0  0  0  0  0  0  0  0  0  0  0  0
   12.2816   -1.1126   -2.1496 H   0  0  0  0  0  0  0  0  0  0  0  0
   14.1708   -2.9108   -2.6167 H   0  0  0  0  0  0  0  0  0  0  0  0
  1  2  2  0  0  0  0
  2  3  1  0  0  0  0
  2 14  1  0  0  0  0
  3  4  1  0  0  0  0
  3 15  1  0  0  0  0
  3 16  1  0  0  0  0
  4  5  1  0  0  0  0
  4 17  1  0  0  0  0
  4 18  1  0  0  0  0
  5  6  1  0  0  0  0
  5 19  1  0  0  0  0
  5 20  1  0  0  0  0
  6  7  1  0  0  0  0
  6 21  1  0  0  0  0
  6 22  1  0  0  0  0
  7  8  1  0  0  0  0
  7 23  1  0  0  0  0
  7 24  1  0  0  0  0
  8  9  1  0  0  0  0
  8 25  1  0  0  0  0
  8 26  1  0  0  0  0
  9 10  1  0  0  0  0
  9 27  1  0  0  0  0
  9 28  1  0  0  0  0
 10 11  1  0  0  0  0
 10 29  1  0  0  0  0
 10 30  1  0  0  0  0
 11 12  2  0  0  0  0
 11 13  1  0  0  0  0
 13 31  1  0  0  0  0
M  END
$$$$
