CHEBI:17144
 OpenBabel04242415553D

 34 34  0  0  1  0  0  0  0  0999 V2000
    8.1532   11.0395   -5.9402 N   0  0  0  0  0  0  0  0  0  0  0  0
    7.7503   10.2872   -7.1599 C   0  0  0  0  0  0  0  0  0  0  0  0
    6.4676    9.4509   -7.0128 C   0  0  0  0  0  0  0  0  0  0  0  0
    5.1552   10.2248   -6.8301 C   0  0  0  0  0  0  0  0  0  0  0  0
    5.0202   10.7960   -5.4608 C   0  0  0  0  0  0  0  0  0  0  0  0
    5.5704   11.9127   -5.0307 N   0  0  0  0  0  0  0  0  0  0  0  0
    5.2333   12.0112   -3.7081 C   0  0  0  0  0  0  0  0  0  0  0  0
    4.4731   10.9321   -3.3166 C   0  0  0  0  0  0  0  0  0  0  0  0
    3.9079   10.5487   -1.9906 C   0  0  0  0  0  0  0  0  0  0  0  0
    2.4624   11.0279   -1.7840 C   0  0  2  0  0  0  0  0  0  0  0  0
    2.3385   12.5196   -1.7414 N   0  0  0  0  0  0  0  0  0  0  0  0
    1.9752   10.4658   -0.4428 C   0  0  0  0  0  0  0  0  0  0  0  0
    1.7459    9.2872   -0.2228 O   0  0  0  0  0  0  0  0  0  0  0  0
    1.8695   11.4413    0.4960 O   0  0  0  0  0  0  0  0  0  0  0  0
    4.3362   10.1680   -4.4495 N   0  0  0  0  0  0  0  0  0  0  0  0
    7.6707   11.2674   -8.3429 C   0  0  0  0  0  0  0  0  0  0  0  0
    7.1816   11.0172   -9.4334 O   0  0  0  0  0  0  0  0  0  0  0  0
    8.2515   12.4561   -8.0346 O   0  0  0  0  0  0  0  0  0  0  0  0
    8.3277   10.3627   -5.1929 H   0  0  0  0  0  0  0  0  0  0  0  0
    7.3211   11.5495   -5.5865 H   0  0  0  0  0  0  0  0  0  0  0  0
    8.5816    9.6104   -7.3929 H   0  0  0  0  0  0  0  0  0  0  0  0
    6.5960    8.7360   -6.1894 H   0  0  0  0  0  0  0  0  0  0  0  0
    6.3616    8.8471   -7.9244 H   0  0  0  0  0  0  0  0  0  0  0  0
    4.3169    9.5414   -7.0158 H   0  0  0  0  0  0  0  0  0  0  0  0
    5.0657   11.0271   -7.5705 H   0  0  0  0  0  0  0  0  0  0  0  0
    5.5688   12.8456   -3.1037 H   0  0  0  0  0  0  0  0  0  0  0  0
    4.5519   10.9489   -1.1957 H   0  0  0  0  0  0  0  0  0  0  0  0
    3.9550    9.4564   -1.8868 H   0  0  0  0  0  0  0  0  0  0  0  0
    1.8012   10.6547   -2.5744 H   0  0  0  0  0  0  0  0  0  0  0  0
    2.8303   12.8946   -2.5603 H   0  0  0  0  0  0  0  0  0  0  0  0
    1.3559   12.7551   -1.9241 H   0  0  0  0  0  0  0  0  0  0  0  0
    2.1329   12.2842    0.0463 H   0  0  0  0  0  0  0  0  0  0  0  0
    3.8518    9.2828   -4.5271 H   0  0  0  0  0  0  0  0  0  0  0  0
    8.5422   12.3698   -7.0904 H   0  0  0  0  0  0  0  0  0  0  0  0
  1  2  1  0  0  0  0
  1 19  1  0  0  0  0
  1 20  1  0  0  0  0
  2  3  1  0  0  0  0
  2 16  1  0  0  0  0
  2 21  1  0  0  0  0
  3  4  1  0  0  0  0
  3 22  1  0  0  0  0
  3 23  1  0  0  0  0
  4  5  1  0  0  0  0
  4 24  1  0  0  0  0
  4 25  1  0  0  0  0
  5  6  2  0  0  0  0
  5 15  1  0  0  0  0
  6  7  1  0  0  0  0
  7  8  2  0  0  0  0
  7 26  1  0  0  0  0
  8  9  1  0  0  0  0
  8 15  1  0  0  0  0
  9 27  1  0  0  0  0
  9 28  1  0  0  0  0
 10 12  1  0  0  0  0
 10 11  1  0  0  0  0
 10  9  1  0  0  0  0
 10 29  1  6  0  0  0
 11 30  1  0  0  0  0
 11 31  1  0  0  0  0
 12 13  2  0  0  0  0
 12 14  1  0  0  0  0
 14 32  1  0  0  0  0
 15 33  1  0  0  0  0
 16 17  2  0  0  0  0
 16 18  1  0  0  0  0
 18 34  1  0  0  0  0
M  END
$$$$
