CHEBI:15474
 OpenBabel04242412033D

 93 96  0  0  1  0  0  0  0  0999 V2000
   15.8812    4.0485    2.7756 C   0  0  0  0  0  0  0  0  0  0  0  0
   14.3547    3.9196    2.6065 C   0  0  0  0  0  0  0  0  0  0  0  0
   14.0491    2.4298    2.3089 C   0  0  0  0  0  0  0  0  0  0  0  0
   13.6602    4.3187    3.9322 C   0  0  0  0  0  0  0  0  0  0  0  0
   12.2522    4.2303    3.7759 O   0  0  0  0  0  0  0  0  0  0  0  0
   11.2909    4.1906    5.0647 P   0  0  0  0  0  0  0  0  0  0  0  0
    9.8657    3.9037    4.7328 O   0  0  0  0  0  0  0  0  0  0  0  0
   11.9432    3.0590    5.9932 O   0  0  0  0  0  0  0  0  0  0  0  0
   11.5816    5.5319    5.8635 O   0  0  0  0  0  0  0  0  0  0  0  0
   10.4530    6.2102    6.7529 P   0  0  0  0  0  0  0  0  0  0  0  0
    9.4361    7.0316    6.0374 O   0  0  0  0  0  0  0  0  0  0  0  0
    9.8161    4.9867    7.5711 O   0  0  0  0  0  0  0  0  0  0  0  0
   11.2198    6.9862    7.9232 O   0  0  0  0  0  0  0  0  0  0  0  0
   12.0346    8.1016    7.5927 C   0  0  0  0  0  0  0  0  0  0  0  0
   13.1338    8.1754    8.6463 C   0  0  1  0  0  0  0  0  0  0  0  0
   14.0130    7.0447    8.4901 O   0  0  0  0  0  0  0  0  0  0  0  0
   15.2822    7.4107    9.0741 C   0  0  1  0  0  0  0  0  0  0  0  0
   16.3283    6.9969    8.1633 N   0  0  0  0  0  0  0  0  0  0  0  0
   16.4018    7.2571    6.8200 C   0  0  0  0  0  0  0  0  0  0  0  0
   17.5039    6.7762    6.2849 N   0  0  0  0  0  0  0  0  0  0  0  0
   18.1556    6.1481    7.3262 C   0  0  0  0  0  0  0  0  0  0  0  0
   19.3593    5.4282    7.3949 C   0  0  0  0  0  0  0  0  0  0  0  0
   20.1888    5.2312    6.2981 N   0  0  0  0  0  0  0  0  0  0  0  0
   19.7166    4.8788    8.5779 N   0  0  0  0  0  0  0  0  0  0  0  0
   18.9149    5.0807    9.6465 C   0  0  0  0  0  0  0  0  0  0  0  0
   17.7589    5.7725    9.7074 N   0  0  0  0  0  0  0  0  0  0  0  0
   17.4352    6.2692    8.5030 C   0  0  0  0  0  0  0  0  0  0  0  0
   15.2565    8.9286    9.3298 C   0  0  2  0  0  0  0  0  0  0  0  0
   15.0645    9.2014   10.7256 O   0  0  0  0  0  0  0  0  0  0  0  0
   14.0390    9.3897    8.5287 C   0  0  2  0  0  0  0  0  0  0  0  0
   13.4203   10.5549    9.0435 O   0  0  0  0  0  0  0  0  0  0  0  0
   14.1594   11.9512    8.8079 P   0  0  0  0  0  0  0  0  0  0  0  0
   14.5550   12.2561    7.4085 O   0  0  0  0  0  0  0  0  0  0  0  0
   13.2303   13.0142    9.5383 O   0  0  0  0  0  0  0  0  0  0  0  0
   15.4082   11.8993    9.8038 O   0  0  0  0  0  0  0  0  0  0  0  0
   13.8435    4.7743    1.4091 C   0  0  1  0  0  0  0  0  0  0  0  0
   12.4785    4.4683    1.0819 O   0  0  0  0  0  0  0  0  0  0  0  0
   13.9941    6.3058    1.5738 C   0  0  0  0  0  0  0  0  0  0  0  0
   14.8804    6.8541    2.2199 O   0  0  0  0  0  0  0  0  0  0  0  0
   13.0688    7.0117    0.8320 N   0  0  0  0  0  0  0  0  0  0  0  0
   13.1447    8.4456    0.6508 C   0  0  0  0  0  0  0  0  0  0  0  0
   14.0405    8.8019   -0.5263 C   0  0  0  0  0  0  0  0  0  0  0  0
   14.2317   10.2953   -0.5864 C   0  0  0  0  0  0  0  0  0  0  0  0
   13.5143   11.0175   -1.2698 O   0  0  0  0  0  0  0  0  0  0  0  0
   15.2370   10.7647    0.2287 N   0  0  0  0  0  0  0  0  0  0  0  0
   15.4912   12.1843    0.3901 C   0  0  0  0  0  0  0  0  0  0  0  0
   16.6317   12.6823   -0.4998 C   0  0  0  0  0  0  0  0  0  0  0  0
   16.8132   14.4939   -0.4537 S   0  0  0  0  0  0  0  0  0  0  0  0
   17.2267   14.6796    1.2485 C   0  0  0  0  0  0  0  0  0  0  0  0
   18.3596   14.4235    1.6383 O   0  0  0  0  0  0  0  0  0  0  0  0
   16.1421   15.1169    2.1019 C   0  0  0  0  0  0  0  0  0  0  0  0
   16.1433   15.4733    3.4398 C   0  0  0  0  0  0  0  0  0  0  0  0
   14.8001   15.7434    3.7977 C   0  0  0  0  0  0  0  0  0  0  0  0
   14.0547   15.5374    2.6626 C   0  0  0  0  0  0  0  0  0  0  0  0
   14.8538   15.1651    1.6322 O   0  0  0  0  0  0  0  0  0  0  0  0
   16.2618    3.3060    3.4867 H   0  0  0  0  0  0  0  0  0  0  0  0
   16.1761    5.0293    3.1582 H   0  0  0  0  0  0  0  0  0  0  0  0
   16.3984    3.8871    1.8231 H   0  0  0  0  0  0  0  0  0  0  0  0
   14.4228    1.7823    3.1103 H   0  0  0  0  0  0  0  0  0  0  0  0
   14.5290    2.1122    1.3758 H   0  0  0  0  0  0  0  0  0  0  0  0
   12.9756    2.2364    2.2115 H   0  0  0  0  0  0  0  0  0  0  0  0
   13.9106    5.3438    4.2227 H   0  0  0  0  0  0  0  0  0  0  0  0
   13.9916    3.6558    4.7390 H   0  0  0  0  0  0  0  0  0  0  0  0
   11.3103    2.7741    6.6806 H   0  0  0  0  0  0  0  0  0  0  0  0
    8.9173    5.2217    7.8735 H   0  0  0  0  0  0  0  0  0  0  0  0
   11.4130    9.0016    7.5984 H   0  0  0  0  0  0  0  0  0  0  0  0
   12.4641    7.9630    6.5944 H   0  0  0  0  0  0  0  0  0  0  0  0
   12.6804    8.1111    9.6447 H   0  0  0  0  0  0  0  0  0  0  0  0
   15.3873    6.8465   10.0073 H   0  0  0  0  0  0  0  0  0  0  0  0
   15.6334    7.7951    6.2795 H   0  0  0  0  0  0  0  0  0  0  0  0
   19.7148    5.3609    5.4109 H   0  0  0  0  0  0  0  0  0  0  0  0
   20.7695    4.4103    6.4052 H   0  0  0  0  0  0  0  0  0  0  0  0
   19.2443    4.6237   10.5756 H   0  0  0  0  0  0  0  0  0  0  0  0
   16.1819    9.4304    9.0298 H   0  0  0  0  0  0  0  0  0  0  0  0
   15.1648   10.1694   10.8329 H   0  0  0  0  0  0  0  0  0  0  0  0
   14.3200    9.5434    7.4798 H   0  0  0  0  0  0  0  0  0  0  0  0
   13.0250   12.7629   10.4568 H   0  0  0  0  0  0  0  0  0  0  0  0
   16.0608   12.5809    9.5395 H   0  0  0  0  0  0  0  0  0  0  0  0
   14.4247    4.5183    0.5138 H   0  0  0  0  0  0  0  0  0  0  0  0
   11.9913    4.4461    1.9313 H   0  0  0  0  0  0  0  0  0  0  0  0
   12.3879    6.4608    0.3120 H   0  0  0  0  0  0  0  0  0  0  0  0
   13.5163    8.9000    1.5768 H   0  0  0  0  0  0  0  0  0  0  0  0
   12.1257    8.8127    0.4888 H   0  0  0  0  0  0  0  0  0  0  0  0
   13.5978    8.4626   -1.4699 H   0  0  0  0  0  0  0  0  0  0  0  0
   15.0185    8.3126   -0.4471 H   0  0  0  0  0  0  0  0  0  0  0  0
   15.7985   10.1046    0.7564 H   0  0  0  0  0  0  0  0  0  0  0  0
   15.7357   12.3208    1.4478 H   0  0  0  0  0  0  0  0  0  0  0  0
   14.5676   12.7342    0.1779 H   0  0  0  0  0  0  0  0  0  0  0  0
   16.4458   12.3984   -1.5414 H   0  0  0  0  0  0  0  0  0  0  0  0
   17.5784   12.2141   -0.2077 H   0  0  0  0  0  0  0  0  0  0  0  0
   17.0165   15.5160    4.0773 H   0  0  0  0  0  0  0  0  0  0  0  0
   14.4193   16.0402    4.7651 H   0  0  0  0  0  0  0  0  0  0  0  0
   12.9993   15.6038    2.4348 H   0  0  0  0  0  0  0  0  0  0  0  0
  1  2  1  0  0  0  0
  1 56  1  0  0  0  0
  1 57  1  0  0  0  0
  1 58  1  0  0  0  0
  2  3  1  0  0  0  0
  2  4  1  0  0  0  0
  2 36  1  0  0  0  0
  3 59  1  0  0  0  0
  3 60  1  0  0  0  0
  3 61  1  0  0  0  0
  4  5  1  0  0  0  0
  4 62  1  0  0  0  0
  4 63  1  0  0  0  0
  5  6  1  0  0  0  0
  6  7  2  0  0  0  0
  6  8  1  0  0  0  0
  6  9  1  0  0  0  0
  8 64  1  0  0  0  0
  9 10  1  0  0  0  0
 10 11  2  0  0  0  0
 10 12  1  0  0  0  0
 10 13  1  0  0  0  0
 12 65  1  0  0  0  0
 13 14  1  0  0  0  0
 14 66  1  0  0  0  0
 14 67  1  0  0  0  0
 15 16  1  0  0  0  0
 15 30  1  0  0  0  0
 15 14  1  0  0  0  0
 15 68  1  1  0  0  0
 16 17  1  0  0  0  0
 17 28  1  0  0  0  0
 17 18  1  0  0  0  0
 17 69  1  1  0  0  0
 18 19  1  0  0  0  0
 18 27  1  0  0  0  0
 19 20  2  0  0  0  0
 19 70  1  0  0  0  0
 20 21  1  0  0  0  0
 21 22  1  0  0  0  0
 21 27  2  0  0  0  0
 22 23  1  0  0  0  0
 22 24  2  0  0  0  0
 23 71  1  0  0  0  0
 23 72  1  0  0  0  0
 24 25  1  0  0  0  0
 25 26  2  0  0  0  0
 25 73  1  0  0  0  0
 26 27  1  0  0  0  0
 28 29  1  0  0  0  0
 28 30  1  0  0  0  0
 28 74  1  6  0  0  0
 29 75  1  0  0  0  0
 30 31  1  0  0  0  0
 30 76  1  6  0  0  0
 31 32  1  0  0  0  0
 32 33  2  0  0  0  0
 32 34  1  0  0  0  0
 32 35  1  0  0  0  0
 34 77  1  0  0  0  0
 35 78  1  0  0  0  0
 36 37  1  0  0  0  0
 36 38  1  0  0  0  0
 36 79  1  6  0  0  0
 37 80  1  0  0  0  0
 38 39  2  0  0  0  0
 38 40  1  0  0  0  0
 40 41  1  0  0  0  0
 40 81  1  0  0  0  0
 41 42  1  0  0  0  0
 41 82  1  0  0  0  0
 41 83  1  0  0  0  0
 42 43  1  0  0  0  0
 42 84  1  0  0  0  0
 42 85  1  0  0  0  0
 43 44  2  0  0  0  0
 43 45  1  0  0  0  0
 45 46  1  0  0  0  0
 45 86  1  0  0  0  0
 46 47  1  0  0  0  0
 46 87  1  0  0  0  0
 46 88  1  0  0  0  0
 47 48  1  0  0  0  0
 47 89  1  0  0  0  0
 47 90  1  0  0  0  0
 48 49  1  0  0  0  0
 49 50  2  0  0  0  0
 49 51  1  0  0  0  0
 51 52  2  0  0  0  0
 51 55  1  0  0  0  0
 52 53  1  0  0  0  0
 52 91  1  0  0  0  0
 53 54  2  0  0  0  0
 53 92  1  0  0  0  0
 54 55  1  0  0  0  0
 54 93  1  0  0  0  0
M  END
$$$$
