CHEBI:17147
 OpenBabel04242415563D

 25 26  0  0  0  0  0  0  0  0999 V2000
    1.0803   -0.7778   -0.2316 N   0  0  0  0  0  0  0  0  0  0  0  0
    2.4133   -0.4340   -0.0683 C   0  0  0  0  0  0  0  0  0  0  0  0
    3.4147   -1.0829   -0.9351 C   0  0  0  0  0  0  0  0  0  0  0  0
    4.6901   -0.9212   -0.8955 N   0  0  0  0  0  0  0  0  0  0  0  0
    5.2292   -0.0344    0.0061 N   0  0  0  0  0  0  0  0  0  0  0  0
    6.6796    0.0533   -0.0404 C   0  0  0  0  0  0  0  0  0  0  0  0
    7.4039    0.7368    0.9584 C   0  0  0  0  0  0  0  0  0  0  0  0
    8.8061    0.8352    0.9451 C   0  0  0  0  0  0  0  0  0  0  0  0
    9.5449    0.2424   -0.0685 C   0  0  0  0  0  0  0  0  0  0  0  0
    8.8650   -0.4435   -1.0602 C   0  0  0  0  0  0  0  0  0  0  0  0
    9.5375   -1.0521   -2.0907 O   0  0  0  0  0  0  0  0  0  0  0  0
    7.4616   -0.5407   -1.0572 C   0  0  0  0  0  0  0  0  0  0  0  0
    6.9236   -1.2252   -2.1225 O   0  0  0  0  0  0  0  0  0  0  0  0
    4.4172    0.7187    0.8748 C   0  0  0  0  0  0  0  0  0  0  0  0
    4.8010    1.5786    1.6679 O   0  0  0  0  0  0  0  0  0  0  0  0
    2.9473    0.4331    0.7995 C   0  0  0  0  0  0  0  0  0  0  0  0
    1.9214    1.2794    1.9192 Cl  0  0  0  0  0  0  0  0  0  0  0  0
    0.9300   -1.7538   -0.4780 H   0  0  0  0  0  0  0  0  0  0  0  0
    0.4986   -0.4819    0.5527 H   0  0  0  0  0  0  0  0  0  0  0  0
    3.0093   -1.7843   -1.6834 H   0  0  0  0  0  0  0  0  0  0  0  0
    6.9125    1.2059    1.8043 H   0  0  0  0  0  0  0  0  0  0  0  0
    9.3099    1.3783    1.7419 H   0  0  0  0  0  0  0  0  0  0  0  0
   10.6261    0.3253   -0.0661 H   0  0  0  0  0  0  0  0  0  0  0  0
   10.4897   -0.9003   -1.9615 H   0  0  0  0  0  0  0  0  0  0  0  0
    7.6911   -1.5207   -2.6486 H   0  0  0  0  0  0  0  0  0  0  0  0
  1  2  1  0  0  0  0
  1 18  1  0  0  0  0
  1 19  1  0  0  0  0
  2  3  1  0  0  0  0
  2 16  2  0  0  0  0
  3  4  2  0  0  0  0
  3 20  1  0  0  0  0
  4  5  1  0  0  0  0
  5  6  1  0  0  0  0
  5 14  1  0  0  0  0
  6  7  1  0  0  0  0
  6 12  2  0  0  0  0
  7  8  2  0  0  0  0
  7 21  1  0  0  0  0
  8  9  1  0  0  0  0
  8 22  1  0  0  0  0
  9 10  2  0  0  0  0
  9 23  1  0  0  0  0
 10 11  1  0  0  0  0
 10 12  1  0  0  0  0
 11 24  1  0  0  0  0
 12 13  1  0  0  0  0
 13 25  1  0  0  0  0
 14 15  2  0  0  0  0
 14 16  1  0  0  0  0
 16 17  1  0  0  0  0
M  END
$$$$
