CHEBI:18280
 OpenBabel04252409193D

 17 17  0  0  0  0  0  0  0  0999 V2000
    3.0469   -1.3746   -3.0774 O   0  0  0  0  0  0  0  0  0  0  0  0
    2.6619   -1.4348   -1.9300 C   0  0  0  0  0  0  0  0  0  0  0  0
    1.3643   -1.4985   -1.5566 O   0  0  0  0  0  0  0  0  0  0  0  0
    3.5477   -1.4518   -0.6827 C   0  0  0  0  0  0  0  0  0  0  0  0
    2.9376   -1.5247    0.3874 O   0  0  0  0  0  0  0  0  0  0  0  0
    5.0317   -1.3848   -0.7254 C   0  0  0  0  0  0  0  0  0  0  0  0
    5.7724   -1.2967   -1.9088 C   0  0  0  0  0  0  0  0  0  0  0  0
    7.1696   -1.2363   -1.8637 C   0  0  0  0  0  0  0  0  0  0  0  0
    7.8367   -1.2631   -0.6408 C   0  0  0  0  0  0  0  0  0  0  0  0
    7.1103   -1.3507    0.5432 C   0  0  0  0  0  0  0  0  0  0  0  0
    5.7156   -1.4112    0.5017 C   0  0  0  0  0  0  0  0  0  0  0  0
    1.3254   -1.5416   -0.5703 H   0  0  0  0  0  0  0  0  0  0  0  0
    5.3037   -1.2720   -2.8878 H   0  0  0  0  0  0  0  0  0  0  0  0
    7.7375   -1.1679   -2.7892 H   0  0  0  0  0  0  0  0  0  0  0  0
    8.9227   -1.2157   -0.6120 H   0  0  0  0  0  0  0  0  0  0  0  0
    7.6274   -1.3718    1.4995 H   0  0  0  0  0  0  0  0  0  0  0  0
    5.1663   -1.4792    1.4396 H   0  0  0  0  0  0  0  0  0  0  0  0
  1  2  2  0  0  0  0
  2  3  1  0  0  0  0
  2  4  1  0  0  0  0
  3 12  1  0  0  0  0
  4  5  2  0  0  0  0
  4  6  1  0  0  0  0
  6  7  1  0  0  0  0
  6 11  2  0  0  0  0
  7  8  2  0  0  0  0
  7 13  1  0  0  0  0
  8  9  1  0  0  0  0
  8 14  1  0  0  0  0
  9 10  2  0  0  0  0
  9 15  1  0  0  0  0
 10 11  1  0  0  0  0
 10 16  1  0  0  0  0
 11 17  1  0  0  0  0
M  END
$$$$
