CHEBI:27049
 OpenBabel04252409413D

 27 26  0  0  0  0  0  0  0  0999 V2000
    2.4734   -0.0154    0.6029 C   0  0  0  0  0  0  0  0  0  0  0  0
    2.0421    0.3170    1.8345 C   0  0  0  0  0  0  0  0  0  0  0  0
    2.3954   -0.5578    3.0236 C   0  0  0  0  0  0  0  0  0  0  0  0
    3.6834   -0.1319    3.6727 C   0  0  0  0  0  0  0  0  0  0  0  0
    3.8707    0.2490    4.9503 C   0  0  0  0  0  0  0  0  0  0  0  0
    2.8430    0.3661    6.0314 C   0  0  0  0  0  0  0  0  0  0  0  0
    5.2645    0.6006    5.3483 C   0  0  0  0  0  0  0  0  0  0  0  0
    5.5597    0.9456    6.4866 O   0  0  0  0  0  0  0  0  0  0  0  0
    1.1428    1.5187    2.1162 C   0  0  0  0  0  0  0  0  0  0  0  0
    1.9688    2.7642    2.4454 C   0  0  0  0  0  0  0  0  0  0  0  0
    0.1540    1.8370    0.9857 C   0  0  0  0  0  0  0  0  0  0  0  0
    3.0955   -0.8907    0.4378 H   0  0  0  0  0  0  0  0  0  0  0  0
    2.2379    0.5774   -0.2747 H   0  0  0  0  0  0  0  0  0  0  0  0
    2.5229   -1.5963    2.6891 H   0  0  0  0  0  0  0  0  0  0  0  0
    1.5555   -0.5915    3.7232 H   0  0  0  0  0  0  0  0  0  0  0  0
    4.5392   -0.1709    2.9985 H   0  0  0  0  0  0  0  0  0  0  0  0
    1.8301    0.1459    5.6878 H   0  0  0  0  0  0  0  0  0  0  0  0
    2.8310    1.3840    6.4359 H   0  0  0  0  0  0  0  0  0  0  0  0
    3.0710   -0.3270    6.8482 H   0  0  0  0  0  0  0  0  0  0  0  0
    6.0282    0.5290    4.5557 H   0  0  0  0  0  0  0  0  0  0  0  0
    0.5263    1.2820    2.9935 H   0  0  0  0  0  0  0  0  0  0  0  0
    2.6168    3.0474    1.6084 H   0  0  0  0  0  0  0  0  0  0  0  0
    2.6015    2.6051    3.3238 H   0  0  0  0  0  0  0  0  0  0  0  0
    1.3142    3.6151    2.6647 H   0  0  0  0  0  0  0  0  0  0  0  0
    0.6590    2.2195    0.0923 H   0  0  0  0  0  0  0  0  0  0  0  0
   -0.5604    2.6027    1.3085 H   0  0  0  0  0  0  0  0  0  0  0  0
   -0.4209    0.9480    0.7035 H   0  0  0  0  0  0  0  0  0  0  0  0
  1  2  2  0  0  0  0
  1 12  1  0  0  0  0
  1 13  1  0  0  0  0
  2  3  1  0  0  0  0
  2  9  1  0  0  0  0
  3  4  1  0  0  0  0
  3 14  1  0  0  0  0
  3 15  1  0  0  0  0
  4  5  2  0  0  0  0
  4 16  1  0  0  0  0
  5  6  1  0  0  0  0
  5  7  1  0  0  0  0
  6 17  1  0  0  0  0
  6 18  1  0  0  0  0
  6 19  1  0  0  0  0
  7  8  2  0  0  0  0
  7 20  1  0  0  0  0
  9 10  1  0  0  0  0
  9 11  1  0  0  0  0
  9 21  1  0  0  0  0
 10 22  1  0  0  0  0
 10 23  1  0  0  0  0
 10 24  1  0  0  0  0
 11 25  1  0  0  0  0
 11 26  1  0  0  0  0
 11 27  1  0  0  0  0
M  END
$$$$
