CHEBI:18043
 OpenBabel04242423273D

 20 20  0  0  0  0  0  0  0  0999 V2000
    1.6832    0.4653   -0.2980 C   0  0  0  0  0  0  0  0  0  0  0  0
    2.9123    0.1676    0.3481 O   0  0  0  0  0  0  0  0  0  0  0  0
    3.3101   -1.1248    0.5765 C   0  0  0  0  0  0  0  0  0  0  0  0
    4.4452   -1.1448    1.4770 C   0  0  0  0  0  0  0  0  0  0  0  0
    4.9771   -2.2951    1.8986 C   0  0  0  0  0  0  0  0  0  0  0  0
    4.4666   -3.5051    1.4814 N   0  0  0  0  0  0  0  0  0  0  0  0
    5.0854   -4.7356    1.9501 C   0  0  0  0  0  0  0  0  0  0  0  0
    3.4213   -3.5913    0.5604 C   0  0  0  0  0  0  0  0  0  0  0  0
    2.9938   -4.6602    0.1287 O   0  0  0  0  0  0  0  0  0  0  0  0
    2.8168   -2.2942    0.1108 C   0  0  0  0  0  0  0  0  0  0  0  0
    1.6535   -2.4130   -0.8603 C   0  0  0  0  0  0  0  0  0  0  0  0
    0.6885   -2.5114   -1.6660 N   0  0  0  0  0  0  0  0  0  0  0  0
    1.5221    1.5453   -0.2236 H   0  0  0  0  0  0  0  0  0  0  0  0
    0.8434   -0.0265    0.2024 H   0  0  0  0  0  0  0  0  0  0  0  0
    1.7314    0.2142   -1.3608 H   0  0  0  0  0  0  0  0  0  0  0  0
    4.8531   -0.1948    1.8110 H   0  0  0  0  0  0  0  0  0  0  0  0
    5.8228   -2.3116    2.5805 H   0  0  0  0  0  0  0  0  0  0  0  0
    5.5038   -4.5980    2.9522 H   0  0  0  0  0  0  0  0  0  0  0  0
    5.8802   -5.0134    1.2514 H   0  0  0  0  0  0  0  0  0  0  0  0
    4.3501   -5.5451    1.9893 H   0  0  0  0  0  0  0  0  0  0  0  0
  1  2  1  0  0  0  0
  1 13  1  0  0  0  0
  1 14  1  0  0  0  0
  1 15  1  0  0  0  0
  2  3  1  0  0  0  0
  3  4  1  0  0  0  0
  3 10  2  0  0  0  0
  4  5  2  0  0  0  0
  4 16  1  0  0  0  0
  5  6  1  0  0  0  0
  5 17  1  0  0  0  0
  6  7  1  0  0  0  0
  6  8  1  0  0  0  0
  7 18  1  0  0  0  0
  7 19  1  0  0  0  0
  7 20  1  0  0  0  0
  8  9  2  0  0  0  0
  8 10  1  0  0  0  0
 10 11  1  0  0  0  0
 11 12  3  0  0  0  0
M  END
$$$$
