CHEBI:17419
 OpenBabel04242416313D

 17 16  0  0  0  0  0  0  0  0999 V2000
    7.3445   -1.9470    2.6251 O   0  0  0  0  0  0  0  0  0  0  0  0
    7.4861   -0.8300    3.0830 C   0  0  0  0  0  0  0  0  0  0  0  0
    7.9144   -0.6337    4.3426 O   0  0  0  0  0  0  0  0  0  0  0  0
    7.2346    0.4695    2.4410 C   0  0  0  0  0  0  0  0  0  0  0  0
    6.8931    0.6528    1.1571 C   0  0  0  0  0  0  0  0  0  0  0  0
    6.7000   -0.3492    0.1393 C   0  0  0  0  0  0  0  0  0  0  0  0
    5.3942   -0.3573   -0.3114 O   0  0  0  0  0  0  0  0  0  0  0  0
    7.6247   -1.1742   -0.3760 C   0  0  0  0  0  0  0  0  0  0  0  0
    9.0500   -1.1905   -0.0081 C   0  0  0  0  0  0  0  0  0  0  0  0
    9.6681   -0.4204    0.6992 O   0  0  0  0  0  0  0  0  0  0  0  0
    9.6582   -2.2208   -0.6242 O   0  0  0  0  0  0  0  0  0  0  0  0
    8.0701   -1.5417    4.6743 H   0  0  0  0  0  0  0  0  0  0  0  0
    7.3346    1.3329    3.0899 H   0  0  0  0  0  0  0  0  0  0  0  0
    6.6868    1.6689    0.8257 H   0  0  0  0  0  0  0  0  0  0  0  0
    5.2762   -1.1006   -0.9262 H   0  0  0  0  0  0  0  0  0  0  0  0
    7.3521   -1.8960   -1.1366 H   0  0  0  0  0  0  0  0  0  0  0  0
   10.5851   -2.1558   -0.3133 H   0  0  0  0  0  0  0  0  0  0  0  0
  1  2  2  0  0  0  0
  2  3  1  0  0  0  0
  2  4  1  0  0  0  0
  3 12  1  0  0  0  0
  4  5  2  0  0  0  0
  4 13  1  0  0  0  0
  5  6  1  0  0  0  0
  5 14  1  0  0  0  0
  6  7  1  0  0  0  0
  6  8  2  0  0  0  0
  7 15  1  0  0  0  0
  8  9  1  0  0  0  0
  8 16  1  0  0  0  0
  9 10  2  0  0  0  0
  9 11  1  0  0  0  0
 11 17  1  0  0  0  0
M  END
$$$$
