CHEBI:18064
 OpenBabel04242423293D

 15 14  0  0  0  0  0  0  0  0999 V2000
    1.2345   -0.3934   -0.2003 C   0  0  0  0  0  0  0  0  0  0  0  0
    2.5145    0.3799    0.1068 C   0  0  0  0  0  0  0  0  0  0  0  0
    2.9404    1.1995   -1.1079 C   0  0  0  0  0  0  0  0  0  0  0  0
    4.2465    1.7347   -0.8645 O   0  0  0  0  0  0  0  0  0  0  0  0
    2.3201    1.2830    1.3151 C   0  0  0  0  0  0  0  0  0  0  0  0
    1.3469    1.2590    2.0539 O   0  0  0  0  0  0  0  0  0  0  0  0
    3.3765    2.0983    1.5493 O   0  0  0  0  0  0  0  0  0  0  0  0
    1.3798   -1.0671   -1.0512 H   0  0  0  0  0  0  0  0  0  0  0  0
    0.4069    0.2842   -0.4380 H   0  0  0  0  0  0  0  0  0  0  0  0
    0.9286   -1.0008    0.6585 H   0  0  0  0  0  0  0  0  0  0  0  0
    3.3039   -0.3330    0.3767 H   0  0  0  0  0  0  0  0  0  0  0  0
    2.2579    2.0353   -1.2946 H   0  0  0  0  0  0  0  0  0  0  0  0
    2.9962    0.5725   -2.0037 H   0  0  0  0  0  0  0  0  0  0  0  0
    4.5369    2.1459   -1.7026 H   0  0  0  0  0  0  0  0  0  0  0  0
    4.0542    2.0236    0.8330 H   0  0  0  0  0  0  0  0  0  0  0  0
  1  2  1  0  0  0  0
  1  8  1  0  0  0  0
  1  9  1  0  0  0  0
  1 10  1  0  0  0  0
  2  3  1  0  0  0  0
  2  5  1  0  0  0  0
  2 11  1  0  0  0  0
  3  4  1  0  0  0  0
  3 12  1  0  0  0  0
  3 13  1  0  0  0  0
  4 14  1  0  0  0  0
  5  6  2  0  0  0  0
  5  7  1  0  0  0  0
  7 15  1  0  0  0  0
M  END
$$$$
