CHEBI:16298
 OpenBabel04242414083D

 31 30  0  0  1  0  0  0  0  0999 V2000
    7.5163   -5.4479   -0.8703 O   0  0  0  0  0  0  0  0  0  0  0  0
    8.4509   -5.1246    0.2455 P   0  0  0  0  0  0  0  0  0  0  0  0
    7.8263   -5.3273    1.6958 O   0  0  0  0  0  0  0  0  0  0  0  0
    9.6914   -6.1294    0.2649 O   0  0  0  0  0  0  0  0  0  0  0  0
    9.0603   -3.6464    0.2129 O   0  0  0  0  0  0  0  0  0  0  0  0
   10.2156   -3.3059    0.9678 C   0  0  0  0  0  0  0  0  0  0  0  0
    9.8478   -2.9567    2.4156 C   0  0  1  0  0  0  0  0  0  0  0  0
    9.5602   -4.1883    3.1154 O   0  0  0  0  0  0  0  0  0  0  0  0
   10.9927   -2.1882    3.1171 C   0  0  1  0  0  0  0  0  0  0  0  0
   12.1583   -3.0183    3.1670 O   0  0  0  0  0  0  0  0  0  0  0  0
   10.6114   -1.7602    4.5471 C   0  0  2  0  0  0  0  0  0  0  0  0
   10.2119   -2.9300    5.2987 O   0  0  0  0  0  0  0  0  0  0  0  0
   11.7450   -1.0731    5.3235 C   0  0  2  0  0  0  0  0  0  0  0  0
   11.2480   -0.8259    6.6574 O   0  0  0  0  0  0  0  0  0  0  0  0
   12.1917    0.2565    4.7155 C   0  0  0  0  0  0  0  0  0  0  0  0
   13.1145    0.8699    5.6192 O   0  0  0  0  0  0  0  0  0  0  0  0
    8.4926   -5.1115    2.3884 H   0  0  0  0  0  0  0  0  0  0  0  0
    9.4320   -6.9560   -0.1839 H   0  0  0  0  0  0  0  0  0  0  0  0
   10.6585   -2.4356    0.4728 H   0  0  0  0  0  0  0  0  0  0  0  0
   10.9443   -4.1212    0.9229 H   0  0  0  0  0  0  0  0  0  0  0  0
    8.9287   -2.3600    2.4304 H   0  0  0  0  0  0  0  0  0  0  0  0
    9.5886   -3.9642    4.0781 H   0  0  0  0  0  0  0  0  0  0  0  0
   11.2475   -1.3023    2.5260 H   0  0  0  0  0  0  0  0  0  0  0  0
   11.8890   -3.8378    3.6302 H   0  0  0  0  0  0  0  0  0  0  0  0
    9.7308   -1.1073    4.5175 H   0  0  0  0  0  0  0  0  0  0  0  0
   10.2386   -2.6293    6.2360 H   0  0  0  0  0  0  0  0  0  0  0  0
   12.6015   -1.7444    5.4536 H   0  0  0  0  0  0  0  0  0  0  0  0
   11.9120   -0.2211    7.0526 H   0  0  0  0  0  0  0  0  0  0  0  0
   11.3432    0.9388    4.6015 H   0  0  0  0  0  0  0  0  0  0  0  0
   12.6847    0.1156    3.7500 H   0  0  0  0  0  0  0  0  0  0  0  0
   13.4288    1.6881    5.1937 H   0  0  0  0  0  0  0  0  0  0  0  0
  1  2  2  0  0  0  0
  2  3  1  0  0  0  0
  2  4  1  0  0  0  0
  2  5  1  0  0  0  0
  3 17  1  0  0  0  0
  4 18  1  0  0  0  0
  5  6  1  0  0  0  0
  6  7  1  0  0  0  0
  6 19  1  0  0  0  0
  6 20  1  0  0  0  0
  7  8  1  0  0  0  0
  7  9  1  0  0  0  0
  7 21  1  6  0  0  0
  8 22  1  0  0  0  0
  9 10  1  0  0  0  0
  9 23  1  1  0  0  0
 10 24  1  0  0  0  0
 11 12  1  0  0  0  0
 11  9  1  0  0  0  0
 11 25  1  1  0  0  0
 12 26  1  0  0  0  0
 13 15  1  0  0  0  0
 13 14  1  0  0  0  0
 13 11  1  0  0  0  0
 13 27  1  1  0  0  0
 14 28  1  0  0  0  0
 15 16  1  0  0  0  0
 15 29  1  0  0  0  0
 15 30  1  0  0  0  0
 16 31  1  0  0  0  0
M  END
$$$$
