CHEBI:17800
 OpenBabel04242417373D

 96 97  0  0  1  0  0  0  0  0999 V2000
    0.9719    1.8155    3.1932 N   0  0  0  0  0  0  0  0  0  0  0  0
    1.7170    1.1830    2.3605 C   0  0  0  0  0  0  0  0  0  0  0  0
    1.8607   -0.1555    2.3520 N   0  0  0  0  0  0  0  0  0  0  0  0
    2.4391   -0.9069    1.2832 C   0  0  1  0  0  0  0  0  0  0  0  0
    1.3936   -1.2944    0.4195 O   0  0  0  0  0  0  0  0  0  0  0  0
    3.4800   -0.0989    0.5309 C   0  0  0  0  0  0  0  0  0  0  0  0
    2.9066    1.2816    0.1913 C   0  0  2  0  0  0  0  0  0  0  0  0
    4.0006    2.1891   -0.4318 C   0  0  2  0  0  0  0  0  0  0  0  0
    5.0522    2.4808    0.5575 N   0  0  0  0  0  0  0  0  0  0  0  0
    6.3483    2.6985    0.2036 C   0  0  0  0  0  0  0  0  0  0  0  0
    6.6971    2.7711   -0.9774 O   0  0  0  0  0  0  0  0  0  0  0  0
    7.3490    3.0573    1.2785 C   0  0  0  0  0  0  0  0  0  0  0  0
    7.1644    2.6237    2.5358 C   0  0  0  0  0  0  0  0  0  0  0  0
    7.9865    2.8871    3.6023 N   0  0  0  0  0  0  0  0  0  0  0  0
    7.7512    2.4641    4.8809 C   0  0  0  0  0  0  0  0  0  0  0  0
    8.7089    2.8696    5.7551 N   0  0  0  0  0  0  0  0  0  0  0  0
    6.8000    1.7864    5.2472 O   0  0  0  0  0  0  0  0  0  0  0  0
    8.3708    3.8360    0.7635 N   0  0  0  0  0  0  0  0  0  0  0  0
    9.4755    4.4294    1.3380 C   0  0  0  0  0  0  0  0  0  0  0  0
    9.8766    4.2471    2.4848 O   0  0  0  0  0  0  0  0  0  0  0  0
   10.1307    5.4344    0.3711 C   0  0  2  0  0  0  0  0  0  0  0  0
   11.4005    6.0457    0.9804 C   0  0  0  0  0  0  0  0  0  0  0  0
   11.1082    6.8301    2.1400 O   0  0  0  0  0  0  0  0  0  0  0  0
    9.1012    6.4340    0.0773 N   0  0  0  0  0  0  0  0  0  0  0  0
    9.2650    7.4323   -0.8487 C   0  0  0  0  0  0  0  0  0  0  0  0
   10.2013    7.4428   -1.6436 O   0  0  0  0  0  0  0  0  0  0  0  0
    8.1340    8.4760   -0.8873 C   0  0  2  0  0  0  0  0  0  0  0  0
    7.7961    9.0153    0.5081 C   0  0  0  0  0  0  0  0  0  0  0  0
    6.7280    9.9547    0.4281 O   0  0  0  0  0  0  0  0  0  0  0  0
    6.2157   10.5427    1.8256 P   0  0  0  0  0  0  0  0  0  0  0  0
    7.2368   11.1831    2.6967 O   0  0  0  0  0  0  0  0  0  0  0  0
    4.9528   11.4358    1.4504 O   0  0  0  0  0  0  0  0  0  0  0  0
    5.5017    9.3106    2.5472 O   0  0  0  0  0  0  0  0  0  0  0  0
    6.9792    7.9738   -1.6376 N   0  0  0  0  0  0  0  0  0  0  0  0
    6.1042    7.0055   -1.1806 C   0  0  0  0  0  0  0  0  0  0  0  0
    6.3032    6.3618   -0.1547 O   0  0  0  0  0  0  0  0  0  0  0  0
    4.8929    6.8261   -2.1175 C   0  0  1  0  0  0  0  0  0  0  0  0
    5.4331    6.5441   -3.4472 N   0  0  0  0  0  0  0  0  0  0  0  0
    4.7068    6.7498   -4.5928 C   0  0  0  0  0  0  0  0  0  0  0  0
    3.5436    7.1366   -4.5783 O   0  0  0  0  0  0  0  0  0  0  0  0
    5.4730    6.5057   -5.8773 C   0  0  0  0  0  0  0  0  0  0  0  0
    5.5602    5.0226   -6.2712 C   0  0  1  0  0  0  0  0  0  0  0  0
    6.1022    4.9525   -7.6347 N   0  0  0  0  0  0  0  0  0  0  0  0
    6.4575    4.2204   -5.3066 C   0  0  0  0  0  0  0  0  0  0  0  0
    6.6288    2.7384   -5.6573 C   0  0  0  0  0  0  0  0  0  0  0  0
    7.4308    2.0287   -4.5648 C   0  0  0  0  0  0  0  0  0  0  0  0
    7.5701    0.6110   -4.8688 N   0  0  0  0  0  0  0  0  0  0  0  0
    3.8457    5.8203   -1.6146 C   0  0  0  0  0  0  0  0  0  0  0  0
    4.2911    4.4477   -1.4286 N   0  0  0  0  0  0  0  0  0  0  0  0
    3.3841    3.5051   -0.9673 C   0  0  0  0  0  0  0  0  0  0  0  0
    2.1697    3.6830   -1.0415 O   0  0  0  0  0  0  0  0  0  0  0  0
    2.3999    1.8758    1.4264 N   0  0  0  0  0  0  0  0  0  0  0  0
    0.5389    1.1539    3.8388 H   0  0  0  0  0  0  0  0  0  0  0  0
    1.3201   -0.6977    3.0114 H   0  0  0  0  0  0  0  0  0  0  0  0
    2.8982   -1.8197    1.6763 H   0  0  0  0  0  0  0  0  0  0  0  0
    0.6944   -0.6381    0.5853 H   0  0  0  0  0  0  0  0  0  0  0  0
    3.7784   -0.6143   -0.3892 H   0  0  0  0  0  0  0  0  0  0  0  0
    4.3704    0.0005    1.1648 H   0  0  0  0  0  0  0  0  0  0  0  0
    2.0750    1.1671   -0.5154 H   0  0  0  0  0  0  0  0  0  0  0  0
    4.4508    1.6791   -1.2930 H   0  0  0  0  0  0  0  0  0  0  0  0
    4.7230    2.6548    1.5036 H   0  0  0  0  0  0  0  0  0  0  0  0
    6.3074    2.0042    2.7954 H   0  0  0  0  0  0  0  0  0  0  0  0
    8.8525    3.3937    3.4319 H   0  0  0  0  0  0  0  0  0  0  0  0
    9.1998    3.7322    5.5716 H   0  0  0  0  0  0  0  0  0  0  0  0
    8.4971    2.6766    6.7255 H   0  0  0  0  0  0  0  0  0  0  0  0
    8.2421    4.0258   -0.2325 H   0  0  0  0  0  0  0  0  0  0  0  0
   10.3879    4.9141   -0.5593 H   0  0  0  0  0  0  0  0  0  0  0  0
   12.1168    5.2669    1.2641 H   0  0  0  0  0  0  0  0  0  0  0  0
   11.8957    6.7045    0.2607 H   0  0  0  0  0  0  0  0  0  0  0  0
   10.8263    6.2014    2.8324 H   0  0  0  0  0  0  0  0  0  0  0  0
    8.1710    6.3163    0.4829 H   0  0  0  0  0  0  0  0  0  0  0  0
    8.5056    9.3188   -1.4845 H   0  0  0  0  0  0  0  0  0  0  0  0
    7.5008    8.2177    1.1960 H   0  0  0  0  0  0  0  0  0  0  0  0
    8.6763    9.5086    0.9363 H   0  0  0  0  0  0  0  0  0  0  0  0
    4.2639   10.9122    1.0056 H   0  0  0  0  0  0  0  0  0  0  0  0
    5.5233    9.4391    3.5157 H   0  0  0  0  0  0  0  0  0  0  0  0
    6.6745    8.5437   -2.4197 H   0  0  0  0  0  0  0  0  0  0  0  0
    4.3949    7.8039   -2.1740 H   0  0  0  0  0  0  0  0  0  0  0  0
    6.4041    6.2618   -3.5221 H   0  0  0  0  0  0  0  0  0  0  0  0
    6.4733    6.9487   -5.7823 H   0  0  0  0  0  0  0  0  0  0  0  0
    4.9594    7.0801   -6.6602 H   0  0  0  0  0  0  0  0  0  0  0  0
    4.5543    4.5859   -6.2693 H   0  0  0  0  0  0  0  0  0  0  0  0
    5.4937    5.4634   -8.2758 H   0  0  0  0  0  0  0  0  0  0  0  0
    6.0920    3.9874   -7.9657 H   0  0  0  0  0  0  0  0  0  0  0  0
    6.0188    4.2553   -4.3042 H   0  0  0  0  0  0  0  0  0  0  0  0
    7.4469    4.6922   -5.2397 H   0  0  0  0  0  0  0  0  0  0  0  0
    7.1502    2.6294   -6.6152 H   0  0  0  0  0  0  0  0  0  0  0  0
    5.6415    2.2723   -5.7621 H   0  0  0  0  0  0  0  0  0  0  0  0
    6.9330    2.1413   -3.5963 H   0  0  0  0  0  0  0  0  0  0  0  0
    8.4269    2.4772   -4.4804 H   0  0  0  0  0  0  0  0  0  0  0  0
    8.0820    0.1572   -4.1128 H   0  0  0  0  0  0  0  0  0  0  0  0
    6.6499    0.1738   -4.8893 H   0  0  0  0  0  0  0  0  0  0  0  0
    2.9920    5.7936   -2.3020 H   0  0  0  0  0  0  0  0  0  0  0  0
    3.4622    6.1576   -0.6434 H   0  0  0  0  0  0  0  0  0  0  0  0
    5.2708    4.2772   -1.2245 H   0  0  0  0  0  0  0  0  0  0  0  0
    2.0047    2.8110    1.3196 H   0  0  0  0  0  0  0  0  0  0  0  0
  1  2  2  0  0  0  0
  1 53  1  0  0  0  0
  2  3  1  0  0  0  0
  2 52  1  0  0  0  0
  3  4  1  0  0  0  0
  3 54  1  0  0  0  0
  4  6  1  0  0  0  0
  4  5  1  0  0  0  0
  4 55  1  1  0  0  0
  5 56  1  0  0  0  0
  6  7  1  0  0  0  0
  6 57  1  0  0  0  0
  6 58  1  0  0  0  0
  7  8  1  0  0  0  0
  7 52  1  0  0  0  0
  7 59  1  6  0  0  0
  8  9  1  0  0  0  0
  8 50  1  0  0  0  0
  8 60  1  6  0  0  0
  9 10  1  0  0  0  0
  9 61  1  0  0  0  0
 10 11  2  0  0  0  0
 10 12  1  0  0  0  0
 12 13  2  0  0  0  0
 12 18  1  0  0  0  0
 13 14  1  0  0  0  0
 13 62  1  0  0  0  0
 14 15  1  0  0  0  0
 14 63  1  0  0  0  0
 15 16  1  0  0  0  0
 15 17  2  0  0  0  0
 16 64  1  0  0  0  0
 16 65  1  0  0  0  0
 18 19  1  0  0  0  0
 18 66  1  0  0  0  0
 19 20  2  0  0  0  0
 19 21  1  0  0  0  0
 21 24  1  0  0  0  0
 21 22  1  0  0  0  0
 21 67  1  6  0  0  0
 22 23  1  0  0  0  0
 22 68  1  0  0  0  0
 22 69  1  0  0  0  0
 23 70  1  0  0  0  0
 24 25  1  0  0  0  0
 24 71  1  0  0  0  0
 25 26  2  0  0  0  0
 25 27  1  0  0  0  0
 27 34  1  0  0  0  0
 27 28  1  0  0  0  0
 27 72  1  6  0  0  0
 28 29  1  0  0  0  0
 28 73  1  0  0  0  0
 28 74  1  0  0  0  0
 29 30  1  0  0  0  0
 30 31  2  0  0  0  0
 30 32  1  0  0  0  0
 30 33  1  0  0  0  0
 32 75  1  0  0  0  0
 33 76  1  0  0  0  0
 34 35  1  0  0  0  0
 34 77  1  0  0  0  0
 35 36  2  0  0  0  0
 35 37  1  0  0  0  0
 37 38  1  0  0  0  0
 37 48  1  0  0  0  0
 37 78  1  6  0  0  0
 38 39  1  0  0  0  0
 38 79  1  0  0  0  0
 39 40  2  0  0  0  0
 39 41  1  0  0  0  0
 41 42  1  0  0  0  0
 41 80  1  0  0  0  0
 41 81  1  0  0  0  0
 42 43  1  0  0  0  0
 42 44  1  0  0  0  0
 42 82  1  1  0  0  0
 43 83  1  0  0  0  0
 43 84  1  0  0  0  0
 44 45  1  0  0  0  0
 44 85  1  0  0  0  0
 44 86  1  0  0  0  0
 45 46  1  0  0  0  0
 45 87  1  0  0  0  0
 45 88  1  0  0  0  0
 46 47  1  0  0  0  0
 46 89  1  0  0  0  0
 46 90  1  0  0  0  0
 47 91  1  0  0  0  0
 47 92  1  0  0  0  0
 48 49  1  0  0  0  0
 48 93  1  0  0  0  0
 48 94  1  0  0  0  0
 49 50  1  0  0  0  0
 49 95  1  0  0  0  0
 50 51  2  0  0  0  0
 52 96  1  0  0  0  0
M  END
$$$$
