CHEBI:15343
 OpenBabel04242411433D

  7  6  0  0  0  0  0  0  0  0999 V2000
    1.0519    0.0803    0.0219 C   0  0  0  0  0  0  0  0  0  0  0  0
    2.5486    0.0528    0.0430 C   0  0  0  0  0  0  0  0  0  0  0  0
    3.1949   -0.7745    0.6776 O   0  0  0  0  0  0  0  0  0  0  0  0
    0.7174    0.9061   -0.6116 H   0  0  0  0  0  0  0  0  0  0  0  0
    0.6751    0.2351    1.0353 H   0  0  0  0  0  0  0  0  0  0  0  0
    0.6751   -0.8584   -0.3902 H   0  0  0  0  0  0  0  0  0  0  0  0
    3.0534    0.8310   -0.5539 H   0  0  0  0  0  0  0  0  0  0  0  0
  1  2  1  0  0  0  0
  1  4  1  0  0  0  0
  1  5  1  0  0  0  0
  1  6  1  0  0  0  0
  2  3  2  0  0  0  0
  2  7  1  0  0  0  0
M  END
$$$$
