CHEBI:16576
 OpenBabel04242414473D

 23 22  0  0  1  0  0  0  0  0999 V2000
    1.6104   -0.4284    0.7839 C   0  0  0  0  0  0  0  0  0  0  0  0
    2.4110   -1.7209    0.8476 C   0  0  1  0  0  0  0  0  0  0  0  0
    2.0380   -2.6364   -0.2588 N   0  0  0  0  0  0  0  0  0  0  0  0
    3.9320   -1.4540    0.8059 C   0  0  0  0  0  0  0  0  0  0  0  0
    4.4642   -0.4391    1.2359 O   0  0  0  0  0  0  0  0  0  0  0  0
    4.6469   -2.5354    0.3242 N   0  0  0  0  0  0  0  0  0  0  0  0
    6.0936   -2.4833    0.0741 C   0  0  2  0  0  0  0  0  0  0  0  0
    6.4138   -3.1008   -1.2798 C   0  0  0  0  0  0  0  0  0  0  0  0
    6.8726   -3.2132    1.1797 C   0  0  0  0  0  0  0  0  0  0  0  0
    8.0813   -3.3964    1.1710 O   0  0  0  0  0  0  0  0  0  0  0  0
    6.0803   -3.6576    2.1869 O   0  0  0  0  0  0  0  0  0  0  0  0
    0.5348   -0.6286    0.8357 H   0  0  0  0  0  0  0  0  0  0  0  0
    1.8127    0.1225   -0.1415 H   0  0  0  0  0  0  0  0  0  0  0  0
    1.8680    0.2308    1.6200 H   0  0  0  0  0  0  0  0  0  0  0  0
    2.2088   -2.2311    1.7965 H   0  0  0  0  0  0  0  0  0  0  0  0
    2.0857   -2.1130   -1.1370 H   0  0  0  0  0  0  0  0  0  0  0  0
    1.0482   -2.8719   -0.1553 H   0  0  0  0  0  0  0  0  0  0  0  0
    4.0733   -3.2386   -0.1462 H   0  0  0  0  0  0  0  0  0  0  0  0
    6.4161   -1.4365    0.0949 H   0  0  0  0  0  0  0  0  0  0  0  0
    6.1253   -4.1576   -1.3118 H   0  0  0  0  0  0  0  0  0  0  0  0
    7.4859   -3.0431   -1.4959 H   0  0  0  0  0  0  0  0  0  0  0  0
    5.8762   -2.5828   -2.0812 H   0  0  0  0  0  0  0  0  0  0  0  0
    5.1613   -3.3688    2.0096 H   0  0  0  0  0  0  0  0  0  0  0  0
  1  2  1  0  0  0  0
  1 12  1  0  0  0  0
  1 13  1  0  0  0  0
  1 14  1  0  0  0  0
  2  3  1  0  0  0  0
  2  4  1  0  0  0  0
  2 15  1  1  0  0  0
  3 16  1  0  0  0  0
  3 17  1  0  0  0  0
  4  5  2  0  0  0  0
  4  6  1  0  0  0  0
  6 18  1  0  0  0  0
  7  9  1  0  0  0  0
  7  8  1  0  0  0  0
  7  6  1  0  0  0  0
  7 19  1  6  0  0  0
  8 20  1  0  0  0  0
  8 21  1  0  0  0  0
  8 22  1  0  0  0  0
  9 10  2  0  0  0  0
  9 11  1  0  0  0  0
 11 23  1  0  0  0  0
M  END
$$$$
