CHEBI:17750
 OpenBabel04242417133D

 19 18  0  0  0  0  0  0  0  0999 V2000
    0.8584   -0.0145   -0.0239 C   0  0  0  0  0  0  0  0  0  0  0  0
    2.3568    0.0264   -0.0840 N   0  3  0  0  0  0  0  0  0  0  0  0
    2.8765   -0.6365   -1.3498 C   0  0  0  0  0  0  0  0  0  0  0  0
    2.8730    1.4544   -0.0143 C   0  0  0  0  0  0  0  0  0  0  0  0
    2.9382   -0.7647    1.1574 C   0  0  0  0  0  0  0  0  0  0  0  0
    4.4836   -0.8396    1.2811 C   0  0  0  0  0  0  0  0  0  0  0  0
    5.0028    0.1341    1.8916 O   0  0  0  0  0  0  0  0  0  0  0  0
    5.0032   -1.8006    0.6510 O   0  5  0  0  0  0  0  0  0  0  0  0
    0.4595    0.5394   -0.8781 H   0  0  0  0  0  0  0  0  0  0  0  0
    0.5331    0.4475    0.9129 H   0  0  0  0  0  0  0  0  0  0  0  0
    0.5348   -1.0587   -0.0644 H   0  0  0  0  0  0  0  0  0  0  0  0
    2.4054   -0.1420   -2.2057 H   0  0  0  0  0  0  0  0  0  0  0  0
    2.5999   -1.6944   -1.3295 H   0  0  0  0  0  0  0  0  0  0  0  0
    3.9609   -0.5139   -1.4101 H   0  0  0  0  0  0  0  0  0  0  0  0
    2.3949    2.0228   -0.8184 H   0  0  0  0  0  0  0  0  0  0  0  0
    3.9566    1.4602   -0.1580 H   0  0  0  0  0  0  0  0  0  0  0  0
    2.6015    1.8775    0.9569 H   0  0  0  0  0  0  0  0  0  0  0  0
    2.5223   -1.7782    1.0933 H   0  0  0  0  0  0  0  0  0  0  0  0
    2.5198   -0.2833    2.0491 H   0  0  0  0  0  0  0  0  0  0  0  0
  1  2  1  0  0  0  0
  1  9  1  0  0  0  0
  1 10  1  0  0  0  0
  1 11  1  0  0  0  0
  2  3  1  0  0  0  0
  2  4  1  0  0  0  0
  2  5  1  0  0  0  0
  3 12  1  0  0  0  0
  3 13  1  0  0  0  0
  3 14  1  0  0  0  0
  4 15  1  0  0  0  0
  4 16  1  0  0  0  0
  4 17  1  0  0  0  0
  5  6  1  0  0  0  0
  5 18  1  0  0  0  0
  5 19  1  0  0  0  0
  6  7  2  0  0  0  0
  6  8  1  0  0  0  0
M  CHG  2   2   1   8  -1
M  END
$$$$
