CHEBI:15777
 OpenBabel04242413153D

 19 19  0  0  0  0  0  0  0  0999 V2000
    2.1318    0.0240    0.5679 O   0  0  0  0  0  0  0  0  0  0  0  0
    1.0022    0.0088    0.0734 C   0  0  0  0  0  0  0  0  0  0  0  0
    0.3095   -1.2852   -0.2816 C   0  0  0  0  0  0  0  0  0  0  0  0
   -1.1448   -1.2610    0.1809 C   0  0  0  0  0  0  0  0  0  0  0  0
   -1.9009   -0.0015   -0.2618 C   0  0  0  0  0  0  0  0  0  0  0  0
   -2.2304    0.0753   -1.7696 C   0  0  0  0  0  0  0  0  0  0  0  0
   -2.8000    1.1406   -2.1369 O   0  0  0  0  0  0  0  0  0  0  0  0
   -1.8943   -0.9269   -2.4574 O   0  5  0  0  0  0  0  0  0  0  0  0
   -1.1472    1.2560    0.1934 C   0  0  0  0  0  0  0  0  0  0  0  0
    0.2897    1.2835   -0.3132 C   0  0  0  0  0  0  0  0  0  0  0  0
    0.8342   -2.1152    0.2037 H   0  0  0  0  0  0  0  0  0  0  0  0
    0.3914   -1.4273   -1.3633 H   0  0  0  0  0  0  0  0  0  0  0  0
   -1.1631   -1.3071    1.2781 H   0  0  0  0  0  0  0  0  0  0  0  0
   -1.6553   -2.1637   -0.1747 H   0  0  0  0  0  0  0  0  0  0  0  0
   -2.8777   -0.0114    0.2417 H   0  0  0  0  0  0  0  0  0  0  0  0
   -1.1387    1.2798    1.2913 H   0  0  0  0  0  0  0  0  0  0  0  0
   -1.6610    2.1685   -0.1299 H   0  0  0  0  0  0  0  0  0  0  0  0
    0.8201    2.1339    0.1276 H   0  0  0  0  0  0  0  0  0  0  0  0
    0.3309    1.3854   -1.4027 H   0  0  0  0  0  0  0  0  0  0  0  0
  1  2  2  0  0  0  0
  2  3  1  0  0  0  0
  2 10  1  0  0  0  0
  3  4  1  0  0  0  0
  3 11  1  0  0  0  0
  3 12  1  0  0  0  0
  4  5  1  0  0  0  0
  4 13  1  0  0  0  0
  4 14  1  0  0  0  0
  5  6  1  0  0  0  0
  5  9  1  0  0  0  0
  5 15  1  0  0  0  0
  6  7  2  0  0  0  0
  6  8  1  0  0  0  0
  9 10  1  0  0  0  0
  9 16  1  0  0  0  0
  9 17  1  0  0  0  0
 10 18  1  0  0  0  0
 10 19  1  0  0  0  0
M  CHG  1   8  -1
M  END
$$$$
