CHEBI:16495
 OpenBabel04242414343D

 75 78  0  0  1  0  0  0  0  0999 V2000
    9.7155    7.6774    3.4233 C   0  0  0  0  0  0  0  0  0  0  0  0
    8.3290    7.5806    2.7844 C   0  0  0  0  0  0  0  0  0  0  0  0
    7.8895    8.9629    2.2956 C   0  0  0  0  0  0  0  0  0  0  0  0
    8.2850    6.5716    1.6194 C   0  0  0  0  0  0  0  0  0  0  0  0
    8.5566    5.1280    2.0595 C   0  0  0  0  0  0  0  0  0  0  0  0
    8.3748    4.1352    0.8992 C   0  0  0  0  0  0  0  0  0  0  0  0
    8.7828    2.6753    1.2543 C   0  0  1  0  0  0  0  0  0  0  0  0
    7.8710    2.1357    2.3614 C   0  0  0  0  0  0  0  0  0  0  0  0
    8.7812    1.7632   -0.0199 C   0  0  1  0  0  0  0  0  0  0  0  0
    9.7368    2.3230   -1.1123 C   0  0  0  0  0  0  0  0  0  0  0  0
   10.4358    1.1353   -1.7688 C   0  0  0  0  0  0  0  0  0  0  0  0
    9.6158   -0.0927   -1.3617 C   0  0  1  0  0  0  0  0  0  0  0  0
    8.4213   -0.4419   -2.2666 C   0  0  0  0  0  0  0  0  0  0  0  0
    8.1934    0.1048   -3.4692 C   0  0  0  0  0  0  0  0  0  0  0  0
    7.1140   -0.3213   -4.3977 C   0  0  0  0  0  0  0  0  0  0  0  0
    6.6167   -1.7633   -4.1717 C   0  0  1  0  0  0  0  0  0  0  0  0
    5.3343   -2.0321   -5.0072 C   0  0  2  0  0  0  0  0  0  0  0  0
    5.5475   -1.8481   -6.5095 C   0  0  0  0  0  0  0  0  0  0  0  0
    4.1988   -1.1440   -4.4983 C   0  0  0  0  0  0  0  0  0  0  0  0
    3.3133   -0.7167   -5.2394 O   0  0  0  0  0  0  0  0  0  0  0  0
    4.2069   -0.7994   -3.0236 C   0  0  0  0  0  0  0  0  0  0  0  0
    4.9111   -1.8945   -2.2405 C   0  0  0  0  0  0  0  0  0  0  0  0
    6.4021   -2.1456   -2.6603 C   0  0  1  0  0  0  0  0  0  0  0  0
    6.5932   -3.6960   -2.5412 C   0  0  0  0  0  0  0  0  0  0  0  0
    7.5188   -1.5258   -1.7055 C   0  0  1  0  0  0  0  0  0  0  0  0
    6.9962   -1.0239   -0.3503 C   0  0  0  0  0  0  0  0  0  0  0  0
    8.1313   -0.7163    0.6237 C   0  0  0  0  0  0  0  0  0  0  0  0
    9.2129    0.2597    0.1101 C   0  0  2  0  0  0  0  0  0  0  0  0
   10.4405    0.1089    1.0466 C   0  0  0  0  0  0  0  0  0  0  0  0
    9.7323    8.4502    4.1997 H   0  0  0  0  0  0  0  0  0  0  0  0
   10.4788    7.9300    2.6796 H   0  0  0  0  0  0  0  0  0  0  0  0
   10.0015    6.7355    3.9008 H   0  0  0  0  0  0  0  0  0  0  0  0
    7.6187    7.2583    3.5565 H   0  0  0  0  0  0  0  0  0  0  0  0
    8.5594    9.3408    1.5158 H   0  0  0  0  0  0  0  0  0  0  0  0
    7.8872    9.6848    3.1195 H   0  0  0  0  0  0  0  0  0  0  0  0
    6.8752    8.9260    1.8845 H   0  0  0  0  0  0  0  0  0  0  0  0
    9.0095    6.8624    0.8483 H   0  0  0  0  0  0  0  0  0  0  0  0
    7.2926    6.6142    1.1524 H   0  0  0  0  0  0  0  0  0  0  0  0
    7.8725    4.8857    2.8785 H   0  0  0  0  0  0  0  0  0  0  0  0
    9.5785    5.0406    2.4442 H   0  0  0  0  0  0  0  0  0  0  0  0
    8.9791    4.4984    0.0610 H   0  0  0  0  0  0  0  0  0  0  0  0
    7.3309    4.1525    0.5619 H   0  0  0  0  0  0  0  0  0  0  0  0
    9.8051    2.7127    1.6522 H   0  0  0  0  0  0  0  0  0  0  0  0
    6.8537    1.9728    1.9911 H   0  0  0  0  0  0  0  0  0  0  0  0
    7.8125    2.8140    3.2161 H   0  0  0  0  0  0  0  0  0  0  0  0
    8.2522    1.1997    2.7724 H   0  0  0  0  0  0  0  0  0  0  0  0
    7.7646    1.7927   -0.4365 H   0  0  0  0  0  0  0  0  0  0  0  0
   10.4960    2.9972   -0.7002 H   0  0  0  0  0  0  0  0  0  0  0  0
    9.1614    2.8886   -1.8542 H   0  0  0  0  0  0  0  0  0  0  0  0
   11.4523    1.0471   -1.3644 H   0  0  0  0  0  0  0  0  0  0  0  0
   10.5752    1.2733   -2.8434 H   0  0  0  0  0  0  0  0  0  0  0  0
   10.2728   -0.9732   -1.3722 H   0  0  0  0  0  0  0  0  0  0  0  0
    8.8244    0.8966   -3.8595 H   0  0  0  0  0  0  0  0  0  0  0  0
    7.5189   -0.2563   -5.4160 H   0  0  0  0  0  0  0  0  0  0  0  0
    6.3120    0.4206   -4.3492 H   0  0  0  0  0  0  0  0  0  0  0  0
    7.4079   -2.4196   -4.5652 H   0  0  0  0  0  0  0  0  0  0  0  0
    5.0113   -3.0687   -4.8536 H   0  0  0  0  0  0  0  0  0  0  0  0
    5.6898   -0.7966   -6.7791 H   0  0  0  0  0  0  0  0  0  0  0  0
    4.6727   -2.2042   -7.0654 H   0  0  0  0  0  0  0  0  0  0  0  0
    6.4154   -2.4186   -6.8552 H   0  0  0  0  0  0  0  0  0  0  0  0
    3.1665   -0.7268   -2.6872 H   0  0  0  0  0  0  0  0  0  0  0  0
    4.6829    0.1719   -2.8687 H   0  0  0  0  0  0  0  0  0  0  0  0
    4.3314   -2.8149   -2.4068 H   0  0  0  0  0  0  0  0  0  0  0  0
    4.7898   -1.7009   -1.1742 H   0  0  0  0  0  0  0  0  0  0  0  0
    5.8899   -4.2515   -3.1700 H   0  0  0  0  0  0  0  0  0  0  0  0
    6.4444   -4.0283   -1.5070 H   0  0  0  0  0  0  0  0  0  0  0  0
    7.6018   -3.9975   -2.8485 H   0  0  0  0  0  0  0  0  0  0  0  0
    8.2141   -2.3481   -1.4763 H   0  0  0  0  0  0  0  0  0  0  0  0
    6.3840   -1.7990    0.1251 H   0  0  0  0  0  0  0  0  0  0  0  0
    6.3681   -0.1340   -0.4803 H   0  0  0  0  0  0  0  0  0  0  0  0
    8.6120   -1.6749    0.8664 H   0  0  0  0  0  0  0  0  0  0  0  0
    7.6897   -0.3737    1.5608 H   0  0  0  0  0  0  0  0  0  0  0  0
   10.1604    0.2262    2.0979 H   0  0  0  0  0  0  0  0  0  0  0  0
   11.2258    0.8420    0.8401 H   0  0  0  0  0  0  0  0  0  0  0  0
   10.8869   -0.8871    0.9439 H   0  0  0  0  0  0  0  0  0  0  0  0
  1  2  1  0  0  0  0
  1 30  1  0  0  0  0
  1 31  1  0  0  0  0
  1 32  1  0  0  0  0
  2  3  1  0  0  0  0
  2  4  1  0  0  0  0
  2 33  1  0  0  0  0
  3 34  1  0  0  0  0
  3 35  1  0  0  0  0
  3 36  1  0  0  0  0
  4  5  1  0  0  0  0
  4 37  1  0  0  0  0
  4 38  1  0  0  0  0
  5  6  1  0  0  0  0
  5 39  1  0  0  0  0
  5 40  1  0  0  0  0
  6 41  1  0  0  0  0
  6 42  1  0  0  0  0
  7  8  1  0  0  0  0
  7  6  1  0  0  0  0
  7 43  1  1  0  0  0
  8 44  1  0  0  0  0
  8 45  1  0  0  0  0
  8 46  1  0  0  0  0
  9 10  1  0  0  0  0
  9 28  1  0  0  0  0
  9  7  1  0  0  0  0
  9 47  1  6  0  0  0
 10 11  1  0  0  0  0
 10 48  1  0  0  0  0
 10 49  1  0  0  0  0
 11 12  1  0  0  0  0
 11 50  1  0  0  0  0
 11 51  1  0  0  0  0
 12 13  1  0  0  0  0
 12 28  1  0  0  0  0
 12 52  1  6  0  0  0
 13 14  2  0  0  0  0
 13 25  1  0  0  0  0
 14 15  1  0  0  0  0
 14 53  1  0  0  0  0
 15 16  1  0  0  0  0
 15 54  1  0  0  0  0
 15 55  1  0  0  0  0
 16 17  1  0  0  0  0
 16 23  1  0  0  0  0
 16 56  1  1  0  0  0
 17 19  1  0  0  0  0
 17 18  1  0  0  0  0
 17 57  1  1  0  0  0
 18 58  1  0  0  0  0
 18 59  1  0  0  0  0
 18 60  1  0  0  0  0
 19 21  1  0  0  0  0
 19 20  2  0  0  0  0
 21 22  1  0  0  0  0
 21 61  1  0  0  0  0
 21 62  1  0  0  0  0
 22 23  1  0  0  0  0
 22 63  1  0  0  0  0
 22 64  1  0  0  0  0
 23 25  1  0  0  0  0
 23 24  1  1  0  0  0
 24 65  1  0  0  0  0
 24 66  1  0  0  0  0
 24 67  1  0  0  0  0
 25 26  1  0  0  0  0
 25 68  1  6  0  0  0
 26 27  1  0  0  0  0
 26 69  1  0  0  0  0
 26 70  1  0  0  0  0
 27 28  1  0  0  0  0
 27 71  1  0  0  0  0
 27 72  1  0  0  0  0
 28 29  1  1  0  0  0
 29 73  1  0  0  0  0
 29 74  1  0  0  0  0
 29 75  1  0  0  0  0
M  END
$$$$
