CHEBI:18298
 OpenBabel04252409213D

 82 83  0  0  1  0  0  0  0  0999 V2000
    6.5621    3.7651    4.9159 C   0  0  0  0  0  0  0  0  0  0  0  0
    6.7311    3.5857    3.4310 C   0  0  0  0  0  0  0  0  0  0  0  0
    6.1638    2.6104    2.6927 C   0  0  0  0  0  0  0  0  0  0  0  0
    5.2927    1.4649    3.1541 C   0  0  0  0  0  0  0  0  0  0  0  0
    3.8360    1.5175    2.6160 C   0  0  0  0  0  0  0  0  0  0  0  0
    3.2187    2.7099    3.1174 O   0  0  0  0  0  0  0  0  0  0  0  0
    3.8412    1.5517    1.0826 C   0  0  0  0  0  0  0  0  0  0  0  0
    3.7242    2.5977    0.4475 O   0  0  0  0  0  0  0  0  0  0  0  0
    4.0675    0.2739    0.3764 C   0  0  0  0  0  0  0  0  0  0  0  0
    4.4503    0.2908   -0.9709 C   0  0  0  0  0  0  0  0  0  0  0  0
    4.7128   -0.9077   -1.6352 C   0  0  0  0  0  0  0  0  0  0  0  0
    4.5906   -2.1214   -0.9597 C   0  0  0  0  0  0  0  0  0  0  0  0
    4.1982   -2.1402    0.3799 C   0  0  0  0  0  0  0  0  0  0  0  0
    3.9304   -0.9397    1.0504 C   0  0  0  0  0  0  0  0  0  0  0  0
    3.4916   -0.9778    2.4655 C   0  0  0  0  0  0  0  0  0  0  0  0
    3.4697   -2.0472    3.0684 O   0  0  0  0  0  0  0  0  0  0  0  0
    3.0210    0.3106    3.1108 C   0  0  0  0  0  0  0  0  0  0  0  0
    1.5113    0.4497    2.8900 C   0  0  0  0  0  0  0  0  0  0  0  0
    7.5942    4.6400    2.7584 C   0  0  0  0  0  0  0  0  0  0  0  0
    9.1037    4.3624    2.8380 C   0  0  0  0  0  0  0  0  0  0  0  0
    9.5213    3.1401    2.0087 C   0  0  0  0  0  0  0  0  0  0  0  0
   11.0285    2.8139    2.0570 C   0  0  2  0  0  0  0  0  0  0  0  0
   11.8850    3.9835    1.5607 C   0  0  0  0  0  0  0  0  0  0  0  0
   11.3611    1.5557    1.2195 C   0  0  0  0  0  0  0  0  0  0  0  0
   10.6899    0.2801    1.7426 C   0  0  0  0  0  0  0  0  0  0  0  0
   11.1771   -0.9654    0.9917 C   0  0  0  0  0  0  0  0  0  0  0  0
   10.5526   -2.2971    1.4709 C   0  0  2  0  0  0  0  0  0  0  0  0
    9.0450   -2.3345    1.2014 C   0  0  0  0  0  0  0  0  0  0  0  0
   10.8859   -2.5679    2.9516 C   0  0  0  0  0  0  0  0  0  0  0  0
   10.5049   -3.9735    3.4317 C   0  0  0  0  0  0  0  0  0  0  0  0
   10.8997   -4.1587    4.9027 C   0  0  0  0  0  0  0  0  0  0  0  0
   10.5393   -5.5210    5.5225 C   0  0  0  0  0  0  0  0  0  0  0  0
    9.0361   -5.7968    5.4944 C   0  0  0  0  0  0  0  0  0  0  0  0
   11.3088   -6.6728    4.8779 C   0  0  0  0  0  0  0  0  0  0  0  0
    6.1060    4.7389    5.1241 H   0  0  0  0  0  0  0  0  0  0  0  0
    7.5341    3.7258    5.4172 H   0  0  0  0  0  0  0  0  0  0  0  0
    5.9256    3.0096    5.3797 H   0  0  0  0  0  0  0  0  0  0  0  0
    6.3733    2.6109    1.6214 H   0  0  0  0  0  0  0  0  0  0  0  0
    5.2617    1.4215    4.2466 H   0  0  0  0  0  0  0  0  0  0  0  0
    5.7895    0.5415    2.8310 H   0  0  0  0  0  0  0  0  0  0  0  0
    3.5898    3.4501    2.5956 H   0  0  0  0  0  0  0  0  0  0  0  0
    4.5546    1.2346   -1.5037 H   0  0  0  0  0  0  0  0  0  0  0  0
    5.0154   -0.8946   -2.6804 H   0  0  0  0  0  0  0  0  0  0  0  0
    4.7962   -3.0559   -1.4779 H   0  0  0  0  0  0  0  0  0  0  0  0
    4.0966   -3.0943    0.8951 H   0  0  0  0  0  0  0  0  0  0  0  0
    3.1802    0.2097    4.1933 H   0  0  0  0  0  0  0  0  0  0  0  0
    1.2656    0.6009    1.8336 H   0  0  0  0  0  0  0  0  0  0  0  0
    1.1039    1.2913    3.4590 H   0  0  0  0  0  0  0  0  0  0  0  0
    0.9873   -0.4550    3.2189 H   0  0  0  0  0  0  0  0  0  0  0  0
    7.3856    5.6139    3.2197 H   0  0  0  0  0  0  0  0  0  0  0  0
    7.3060    4.7517    1.7048 H   0  0  0  0  0  0  0  0  0  0  0  0
    9.4113    4.2258    3.8814 H   0  0  0  0  0  0  0  0  0  0  0  0
    9.6199    5.2541    2.4661 H   0  0  0  0  0  0  0  0  0  0  0  0
    9.2131    3.2882    0.9660 H   0  0  0  0  0  0  0  0  0  0  0  0
    8.9685    2.2739    2.3833 H   0  0  0  0  0  0  0  0  0  0  0  0
   11.3078    2.6146    3.0999 H   0  0  0  0  0  0  0  0  0  0  0  0
   11.5844    4.2962    0.5552 H   0  0  0  0  0  0  0  0  0  0  0  0
   12.9439    3.7049    1.5262 H   0  0  0  0  0  0  0  0  0  0  0  0
   11.8057    4.8469    2.2279 H   0  0  0  0  0  0  0  0  0  0  0  0
   12.4484    1.4049    1.2256 H   0  0  0  0  0  0  0  0  0  0  0  0
   11.0714    1.7179    0.1735 H   0  0  0  0  0  0  0  0  0  0  0  0
    9.6048    0.3608    1.6310 H   0  0  0  0  0  0  0  0  0  0  0  0
   10.9078    0.1846    2.8113 H   0  0  0  0  0  0  0  0  0  0  0  0
   12.2683   -1.0368    1.0869 H   0  0  0  0  0  0  0  0  0  0  0  0
   10.9706   -0.8420   -0.0793 H   0  0  0  0  0  0  0  0  0  0  0  0
   11.0118   -3.0924    0.8683 H   0  0  0  0  0  0  0  0  0  0  0  0
    8.8232   -2.0196    0.1761 H   0  0  0  0  0  0  0  0  0  0  0  0
    8.4942   -1.6811    1.8857 H   0  0  0  0  0  0  0  0  0  0  0  0
    8.6504   -3.3487    1.3188 H   0  0  0  0  0  0  0  0  0  0  0  0
   10.3766   -1.8350    3.5885 H   0  0  0  0  0  0  0  0  0  0  0  0
   11.9639   -2.4267    3.1030 H   0  0  0  0  0  0  0  0  0  0  0  0
   11.0070   -4.7195    2.8064 H   0  0  0  0  0  0  0  0  0  0  0  0
    9.4264   -4.1186    3.3208 H   0  0  0  0  0  0  0  0  0  0  0  0
   10.4196   -3.3712    5.4986 H   0  0  0  0  0  0  0  0  0  0  0  0
   11.9814   -4.0014    5.0048 H   0  0  0  0  0  0  0  0  0  0  0  0
   10.8427   -5.4770    6.5771 H   0  0  0  0  0  0  0  0  0  0  0  0
    8.6730   -5.9719    4.4767 H   0  0  0  0  0  0  0  0  0  0  0  0
    8.4767   -4.9566    5.9189 H   0  0  0  0  0  0  0  0  0  0  0  0
    8.7995   -6.6877    6.0862 H   0  0  0  0  0  0  0  0  0  0  0  0
   11.0108   -6.8298    3.8366 H   0  0  0  0  0  0  0  0  0  0  0  0
   11.1253   -7.6068    5.4202 H   0  0  0  0  0  0  0  0  0  0  0  0
   12.3868   -6.4817    4.9009 H   0  0  0  0  0  0  0  0  0  0  0  0
  1  2  1  0  0  0  0
  1 35  1  0  0  0  0
  1 36  1  0  0  0  0
  1 37  1  0  0  0  0
  2  3  2  0  0  0  0
  2 19  1  0  0  0  0
  3  4  1  0  0  0  0
  3 38  1  0  0  0  0
  4  5  1  0  0  0  0
  4 39  1  0  0  0  0
  4 40  1  0  0  0  0
  5  6  1  0  0  0  0
  5  7  1  0  0  0  0
  5 17  1  0  0  0  0
  6 41  1  0  0  0  0
  7  8  2  0  0  0  0
  7  9  1  0  0  0  0
  9 10  1  0  0  0  0
  9 14  2  0  0  0  0
 10 11  2  0  0  0  0
 10 42  1  0  0  0  0
 11 12  1  0  0  0  0
 11 43  1  0  0  0  0
 12 13  2  0  0  0  0
 12 44  1  0  0  0  0
 13 14  1  0  0  0  0
 13 45  1  0  0  0  0
 14 15  1  0  0  0  0
 15 16  2  0  0  0  0
 15 17  1  0  0  0  0
 17 18  1  0  0  0  0
 17 46  1  0  0  0  0
 18 47  1  0  0  0  0
 18 48  1  0  0  0  0
 18 49  1  0  0  0  0
 19 20  1  0  0  0  0
 19 50  1  0  0  0  0
 19 51  1  0  0  0  0
 20 21  1  0  0  0  0
 20 52  1  0  0  0  0
 20 53  1  0  0  0  0
 21 54  1  0  0  0  0
 21 55  1  0  0  0  0
 22 24  1  0  0  0  0
 22 23  1  0  0  0  0
 22 21  1  0  0  0  0
 22 56  1  1  0  0  0
 23 57  1  0  0  0  0
 23 58  1  0  0  0  0
 23 59  1  0  0  0  0
 24 25  1  0  0  0  0
 24 60  1  0  0  0  0
 24 61  1  0  0  0  0
 25 26  1  0  0  0  0
 25 62  1  0  0  0  0
 25 63  1  0  0  0  0
 26 64  1  0  0  0  0
 26 65  1  0  0  0  0
 27 29  1  0  0  0  0
 27 28  1  0  0  0  0
 27 26  1  0  0  0  0
 27 66  1  6  0  0  0
 28 67  1  0  0  0  0
 28 68  1  0  0  0  0
 28 69  1  0  0  0  0
 29 30  1  0  0  0  0
 29 70  1  0  0  0  0
 29 71  1  0  0  0  0
 30 31  1  0  0  0  0
 30 72  1  0  0  0  0
 30 73  1  0  0  0  0
 31 32  1  0  0  0  0
 31 74  1  0  0  0  0
 31 75  1  0  0  0  0
 32 33  1  0  0  0  0
 32 34  1  0  0  0  0
 32 76  1  0  0  0  0
 33 77  1  0  0  0  0
 33 78  1  0  0  0  0
 33 79  1  0  0  0  0
 34 80  1  0  0  0  0
 34 81  1  0  0  0  0
 34 82  1  0  0  0  0
M  END
$$$$
