CHEBI:16259
 OpenBabel04242414043D

 28 28  0  0  1  0  0  0  0  0999 V2000
    0.2600    0.1704   -3.5954 C   0  0  0  0  0  0  0  0  0  0  0  0
    1.6134    0.2943   -2.9566 C   0  0  0  0  0  0  0  0  0  0  0  0
    1.8113    0.9012   -1.9064 O   0  0  0  0  0  0  0  0  0  0  0  0
    2.6489   -0.2496   -3.6667 N   0  0  0  0  0  0  0  0  0  0  0  0
    4.0292   -0.2546   -3.1598 C   0  0  1  0  0  0  0  0  0  0  0  0
    4.8961   -1.3117   -3.8692 C   0  0  0  0  0  0  0  0  0  0  0  0
    4.5515   -2.7748   -3.6660 C   0  0  0  0  0  0  0  0  0  0  0  0
    3.5629   -3.2352   -2.7866 C   0  0  0  0  0  0  0  0  0  0  0  0
    3.3196   -4.6043   -2.6404 C   0  0  0  0  0  0  0  0  0  0  0  0
    4.0663   -5.5322   -3.3618 C   0  0  0  0  0  0  0  0  0  0  0  0
    5.0582   -5.0930   -4.2328 C   0  0  0  0  0  0  0  0  0  0  0  0
    5.2979   -3.7261   -4.3836 C   0  0  0  0  0  0  0  0  0  0  0  0
    4.6684    1.1382   -3.3247 C   0  0  0  0  0  0  0  0  0  0  0  0
    5.6988    1.3611   -3.9465 O   0  0  0  0  0  0  0  0  0  0  0  0
    4.0153    2.1229   -2.6596 O   0  0  0  0  0  0  0  0  0  0  0  0
    0.0337    1.0914   -4.1386 H   0  0  0  0  0  0  0  0  0  0  0  0
   -0.4908    0.0062   -2.8177 H   0  0  0  0  0  0  0  0  0  0  0  0
    0.2268   -0.6751   -4.2881 H   0  0  0  0  0  0  0  0  0  0  0  0
    2.4821   -0.6019   -4.6029 H   0  0  0  0  0  0  0  0  0  0  0  0
    4.0108   -0.4585   -2.0815 H   0  0  0  0  0  0  0  0  0  0  0  0
    5.9376   -1.1864   -3.5428 H   0  0  0  0  0  0  0  0  0  0  0  0
    4.8750   -1.1126   -4.9501 H   0  0  0  0  0  0  0  0  0  0  0  0
    2.9649   -2.5507   -2.1916 H   0  0  0  0  0  0  0  0  0  0  0  0
    2.5490   -4.9472   -1.9542 H   0  0  0  0  0  0  0  0  0  0  0  0
    3.8799   -6.5959   -3.2398 H   0  0  0  0  0  0  0  0  0  0  0  0
    5.6507   -5.8133   -4.7911 H   0  0  0  0  0  0  0  0  0  0  0  0
    6.0850   -3.4035   -5.0636 H   0  0  0  0  0  0  0  0  0  0  0  0
    3.2190    1.7969   -2.1703 H   0  0  0  0  0  0  0  0  0  0  0  0
  1  2  1  0  0  0  0
  1 16  1  0  0  0  0
  1 17  1  0  0  0  0
  1 18  1  0  0  0  0
  2  3  2  0  0  0  0
  2  4  1  0  0  0  0
  4  5  1  0  0  0  0
  4 19  1  0  0  0  0
  5  6  1  0  0  0  0
  5 13  1  0  0  0  0
  5 20  1  1  0  0  0
  6  7  1  0  0  0  0
  6 21  1  0  0  0  0
  6 22  1  0  0  0  0
  7  8  1  0  0  0  0
  7 12  2  0  0  0  0
  8  9  2  0  0  0  0
  8 23  1  0  0  0  0
  9 10  1  0  0  0  0
  9 24  1  0  0  0  0
 10 11  2  0  0  0  0
 10 25  1  0  0  0  0
 11 12  1  0  0  0  0
 11 26  1  0  0  0  0
 12 27  1  0  0  0  0
 13 14  2  0  0  0  0
 13 15  1  0  0  0  0
 15 28  1  0  0  0  0
M  END
$$$$
