CHEBI:16471
 OpenBabel04242414293D

 15 14  0  0  0  0  0  0  0  0999 V2000
    1.0528    0.6383    0.4592 C   0  0  0  0  0  0  0  0  0  0  0  0
    2.3897   -0.0631   -0.5351 S   0  3  0  0  0  0  0  0  0  0  0  0
    3.4697    1.3863   -0.4969 C   0  0  0  0  0  0  0  0  0  0  0  0
    3.2148   -1.0096    0.8152 C   0  0  0  0  0  0  0  0  0  0  0  0
    3.5426   -0.2704    2.1240 C   0  0  0  0  0  0  0  0  0  0  0  0
    2.6428   -0.3143    3.0123 O   0  0  0  0  0  0  0  0  0  0  0  0
    4.6833    0.2750    2.1683 O   0  5  0  0  0  0  0  0  0  0  0  0
    0.4598    1.2945   -0.1837 H   0  0  0  0  0  0  0  0  0  0  0  0
    1.4211    1.2230    1.3034 H   0  0  0  0  0  0  0  0  0  0  0  0
    0.4134   -0.1719    0.8184 H   0  0  0  0  0  0  0  0  0  0  0  0
    3.1051    2.1006   -1.2402 H   0  0  0  0  0  0  0  0  0  0  0  0
    4.4837    1.0836   -0.7695 H   0  0  0  0  0  0  0  0  0  0  0  0
    3.4769    1.8768    0.4778 H   0  0  0  0  0  0  0  0  0  0  0  0
    4.1398   -1.4118    0.3869 H   0  0  0  0  0  0  0  0  0  0  0  0
    2.5654   -1.8646    1.0343 H   0  0  0  0  0  0  0  0  0  0  0  0
  1  2  1  0  0  0  0
  1  8  1  0  0  0  0
  1  9  1  0  0  0  0
  1 10  1  0  0  0  0
  2  3  1  0  0  0  0
  2  4  1  0  0  0  0
  3 11  1  0  0  0  0
  3 12  1  0  0  0  0
  3 13  1  0  0  0  0
  4  5  1  0  0  0  0
  4 14  1  0  0  0  0
  4 15  1  0  0  0  0
  5  6  2  0  0  0  0
  5  7  1  0  0  0  0
M  CHG  2   2   1   7  -1
M  END
$$$$
