CHEBI:17823
 OpenBabel04242417403D

 74 76  0  0  1  0  0  0  0  0999 V2000
   -8.9228    2.4310   10.9166 C   0  0  0  0  0  0  0  0  0  0  0  0
   -9.6650    3.5057   11.2367 C   0  0  0  0  0  0  0  0  0  0  0  0
   -9.0794    4.6544   11.9332 C   0  0  0  0  0  0  0  0  0  0  0  0
   -8.0508    5.4094   11.4962 C   0  0  0  0  0  0  0  0  0  0  0  0
   -7.3521    5.2701   10.2340 C   0  0  0  0  0  0  0  0  0  0  0  0
   -6.2557    5.9457    9.8366 C   0  0  0  0  0  0  0  0  0  0  0  0
   -5.5087    6.9904   10.6480 C   0  0  0  0  0  0  0  0  0  0  0  0
   -4.0026    6.7075   10.7239 C   0  0  0  0  0  0  0  0  0  0  0  0
   -3.3671    6.4141    9.3557 C   0  0  0  0  0  0  0  0  0  0  0  0
   -4.1226    5.3083    8.5852 C   0  0  2  0  0  0  0  0  0  0  0  0
   -3.9547    3.9487    9.3062 C   0  0  0  0  0  0  0  0  0  0  0  0
   -3.7651    5.1992    7.0686 C   0  0  1  0  0  0  0  0  0  0  0  0
   -2.4821    4.4320    6.6456 C   0  0  2  0  0  0  0  0  0  0  0  0
   -1.2061    5.0215    7.2543 C   0  0  0  0  0  0  0  0  0  0  0  0
   -2.3243    4.3181    5.1056 C   0  0  0  0  0  0  0  0  0  0  0  0
   -2.1729    5.6526    4.3631 C   0  0  0  0  0  0  0  0  0  0  0  0
   -1.9889    5.4224    2.8588 C   0  0  0  0  0  0  0  0  0  0  0  0
   -1.8035    6.6974    2.0107 C   0  0  0  0  0  0  0  0  0  0  0  0
   -3.0169    7.6272    2.0758 C   0  0  0  0  0  0  0  0  0  0  0  0
   -0.5313    7.4598    2.3834 C   0  0  0  0  0  0  0  0  0  0  0  0
   -1.6459    6.2837    0.6467 O   0  0  0  0  0  0  0  0  0  0  0  0
   -5.0467    4.5819    6.4417 C   0  0  0  0  0  0  0  0  0  0  0  0
   -6.1905    4.7935    7.4409 C   0  0  0  0  0  0  0  0  0  0  0  0
   -5.6099    5.7522    8.4776 C   0  0  1  0  0  0  0  0  0  0  0  0
   -9.7944    4.9903   13.2301 C   0  0  0  0  0  0  0  0  0  0  0  0
  -11.3063    5.1614   13.0170 C   0  0  1  0  0  0  0  0  0  0  0  0
  -11.5858    6.3819   12.3287 O   0  0  0  0  0  0  0  0  0  0  0  0
  -11.9201    3.9789   12.2673 C   0  0  0  0  0  0  0  0  0  0  0  0
  -11.1573    3.6403   10.9811 C   0  0  2  0  0  0  0  0  0  0  0  0
  -11.7067    2.4449   10.4288 O   0  0  0  0  0  0  0  0  0  0  0  0
   -7.8628    2.3808   11.1497 H   0  0  0  0  0  0  0  0  0  0  0  0
   -9.3445    1.5781   10.3948 H   0  0  0  0  0  0  0  0  0  0  0  0
   -7.7320    6.2323   12.1307 H   0  0  0  0  0  0  0  0  0  0  0  0
   -7.7921    4.5537    9.5444 H   0  0  0  0  0  0  0  0  0  0  0  0
   -5.8854    7.0844   11.6696 H   0  0  0  0  0  0  0  0  0  0  0  0
   -5.6640    7.9677   10.1726 H   0  0  0  0  0  0  0  0  0  0  0  0
   -3.8255    5.8632   11.4011 H   0  0  0  0  0  0  0  0  0  0  0  0
   -3.4979    7.5705   11.1747 H   0  0  0  0  0  0  0  0  0  0  0  0
   -2.3199    6.1444    9.5168 H   0  0  0  0  0  0  0  0  0  0  0  0
   -3.3623    7.3406    8.7671 H   0  0  0  0  0  0  0  0  0  0  0  0
   -2.8962    3.7110    9.4533 H   0  0  0  0  0  0  0  0  0  0  0  0
   -4.3949    3.1210    8.7409 H   0  0  0  0  0  0  0  0  0  0  0  0
   -4.4229    3.9407   10.2951 H   0  0  0  0  0  0  0  0  0  0  0  0
   -3.6810    6.2261    6.6852 H   0  0  0  0  0  0  0  0  0  0  0  0
   -2.5626    3.3995    7.0106 H   0  0  0  0  0  0  0  0  0  0  0  0
   -1.1662    6.1089    7.1365 H   0  0  0  0  0  0  0  0  0  0  0  0
   -0.3122    4.5965    6.7845 H   0  0  0  0  0  0  0  0  0  0  0  0
   -1.1336    4.7876    8.3191 H   0  0  0  0  0  0  0  0  0  0  0  0
   -3.1769    3.7698    4.6880 H   0  0  0  0  0  0  0  0  0  0  0  0
   -1.4445    3.6954    4.8942 H   0  0  0  0  0  0  0  0  0  0  0  0
   -1.3113    6.1971    4.7604 H   0  0  0  0  0  0  0  0  0  0  0  0
   -3.0607    6.2693    4.5299 H   0  0  0  0  0  0  0  0  0  0  0  0
   -2.8516    4.8618    2.4734 H   0  0  0  0  0  0  0  0  0  0  0  0
   -1.1265    4.7618    2.6946 H   0  0  0  0  0  0  0  0  0  0  0  0
   -3.1454    8.0689    3.0685 H   0  0  0  0  0  0  0  0  0  0  0  0
   -3.9348    7.0893    1.8131 H   0  0  0  0  0  0  0  0  0  0  0  0
   -2.9190    8.4429    1.3500 H   0  0  0  0  0  0  0  0  0  0  0  0
   -0.5867    7.8924    3.3868 H   0  0  0  0  0  0  0  0  0  0  0  0
   -0.3447    8.2737    1.6729 H   0  0  0  0  0  0  0  0  0  0  0  0
    0.3445    6.8028    2.3349 H   0  0  0  0  0  0  0  0  0  0  0  0
   -2.4591    5.8234    0.3770 H   0  0  0  0  0  0  0  0  0  0  0  0
   -4.9337    3.5094    6.2464 H   0  0  0  0  0  0  0  0  0  0  0  0
   -5.2727    5.0679    5.4858 H   0  0  0  0  0  0  0  0  0  0  0  0
   -6.4742    3.8299    7.8786 H   0  0  0  0  0  0  0  0  0  0  0  0
   -7.0792    5.2073    6.9528 H   0  0  0  0  0  0  0  0  0  0  0  0
   -5.6409    6.7477    8.0025 H   0  0  0  0  0  0  0  0  0  0  0  0
   -9.3884    5.9099   13.6693 H   0  0  0  0  0  0  0  0  0  0  0  0
   -9.6143    4.1809   13.9494 H   0  0  0  0  0  0  0  0  0  0  0  0
  -11.7932    5.2485   13.9948 H   0  0  0  0  0  0  0  0  0  0  0  0
  -10.9945    6.4456   11.5575 H   0  0  0  0  0  0  0  0  0  0  0  0
  -12.9665    4.1895   12.0131 H   0  0  0  0  0  0  0  0  0  0  0  0
  -11.9357    3.0998   12.9254 H   0  0  0  0  0  0  0  0  0  0  0  0
  -11.3161    4.4317   10.2387 H   0  0  0  0  0  0  0  0  0  0  0  0
  -11.5852    1.7422   11.0891 H   0  0  0  0  0  0  0  0  0  0  0  0
  1  2  2  0  0  0  0
  1 31  1  0  0  0  0
  1 32  1  0  0  0  0
  2  3  1  0  0  0  0
  2 29  1  0  0  0  0
  3  4  2  0  0  0  0
  3 25  1  0  0  0  0
  4  5  1  0  0  0  0
  4 33  1  0  0  0  0
  5  6  2  0  0  0  0
  5 34  1  0  0  0  0
  6  7  1  0  0  0  0
  6 24  1  0  0  0  0
  7  8  1  0  0  0  0
  7 35  1  0  0  0  0
  7 36  1  0  0  0  0
  8  9  1  0  0  0  0
  8 37  1  0  0  0  0
  8 38  1  0  0  0  0
  9 10  1  0  0  0  0
  9 39  1  0  0  0  0
  9 40  1  0  0  0  0
 10 11  1  1  0  0  0
 10 12  1  0  0  0  0
 10 24  1  0  0  0  0
 11 41  1  0  0  0  0
 11 42  1  0  0  0  0
 11 43  1  0  0  0  0
 12 22  1  0  0  0  0
 12 44  1  6  0  0  0
 13 15  1  0  0  0  0
 13 14  1  0  0  0  0
 13 12  1  0  0  0  0
 13 45  1  1  0  0  0
 14 46  1  0  0  0  0
 14 47  1  0  0  0  0
 14 48  1  0  0  0  0
 15 16  1  0  0  0  0
 15 49  1  0  0  0  0
 15 50  1  0  0  0  0
 16 17  1  0  0  0  0
 16 51  1  0  0  0  0
 16 52  1  0  0  0  0
 17 18  1  0  0  0  0
 17 53  1  0  0  0  0
 17 54  1  0  0  0  0
 18 19  1  0  0  0  0
 18 20  1  0  0  0  0
 18 21  1  0  0  0  0
 19 55  1  0  0  0  0
 19 56  1  0  0  0  0
 19 57  1  0  0  0  0
 20 58  1  0  0  0  0
 20 59  1  0  0  0  0
 20 60  1  0  0  0  0
 21 61  1  0  0  0  0
 22 23  1  0  0  0  0
 22 62  1  0  0  0  0
 22 63  1  0  0  0  0
 23 24  1  0  0  0  0
 23 64  1  0  0  0  0
 23 65  1  0  0  0  0
 24 66  1  6  0  0  0
 25 26  1  0  0  0  0
 25 67  1  0  0  0  0
 25 68  1  0  0  0  0
 26 27  1  0  0  0  0
 26 28  1  0  0  0  0
 26 69  1  1  0  0  0
 27 70  1  0  0  0  0
 28 29  1  0  0  0  0
 28 71  1  0  0  0  0
 28 72  1  0  0  0  0
 29 30  1  0  0  0  0
 29 73  1  6  0  0  0
 30 74  1  0  0  0  0
M  END
$$$$
