CHEBI:17877
 OpenBabel04242423133D

 88 93  0  0  1  0  0  0  0  0999 V2000
    4.6868    7.9062    8.6549 C   0  0  0  0  0  0  0  0  0  0  0  0
    5.3781    7.1616    7.5463 C   0  0  0  0  0  0  0  0  0  0  0  0
    6.3820    6.2391    7.8639 C   0  0  0  0  0  0  0  0  0  0  0  0
    7.0341    5.5087    6.8629 C   0  0  0  0  0  0  0  0  0  0  0  0
    6.7434    5.7301    5.4864 C   0  0  0  0  0  0  0  0  0  0  0  0
    5.7247    6.6471    5.1913 C   0  0  0  0  0  0  0  0  0  0  0  0
    5.0226    7.3423    6.1986 C   0  0  0  0  0  0  0  0  0  0  0  0
    3.9296    8.2956    5.7947 C   0  0  0  0  0  0  0  0  0  0  0  0
    7.4611    4.9782    4.4911 N   0  0  0  0  0  0  0  0  0  0  0  0
    7.5185    5.5396    3.1160 C   0  0  0  0  0  0  0  0  0  0  0  0
    6.5107    4.8642    2.1621 C   0  0  2  0  0  0  0  0  0  0  0  0
    5.2072    5.4544    2.2773 O   0  0  0  0  0  0  0  0  0  0  0  0
    6.9137    4.8973    0.6670 C   0  0  2  0  0  0  0  0  0  0  0  0
    6.0091    3.9820   -0.0188 O   0  0  0  0  0  0  0  0  0  0  0  0
    6.7334    6.2527   -0.0610 C   0  0  2  0  0  0  0  0  0  0  0  0
    6.7601    5.9981   -1.4830 O   0  0  0  0  0  0  0  0  0  0  0  0
    7.7875    7.3204    0.2307 C   0  0  0  0  0  0  0  0  0  0  0  0
    9.0801    6.8477   -0.1206 O   0  0  0  0  0  0  0  0  0  0  0  0
   10.3248    7.8428    0.0864 P   0  0  0  0  0  0  0  0  0  0  0  0
   10.8853    7.8113    1.4669 O   0  0  0  0  0  0  0  0  0  0  0  0
   11.3555    7.2854   -1.0058 O   0  0  0  0  0  0  0  0  0  0  0  0
    9.8750    9.2469   -0.5007 O   0  0  0  0  0  0  0  0  0  0  0  0
   10.3976   10.6266    0.0825 P   0  0  0  0  0  0  0  0  0  0  0  0
    9.9832   10.9479    1.4783 O   0  0  0  0  0  0  0  0  0  0  0  0
   11.9816   10.5842   -0.1229 O   0  0  0  0  0  0  0  0  0  0  0  0
    9.9459   11.7211   -1.0070 O   0  0  0  0  0  0  0  0  0  0  0  0
    8.6670   12.3142   -0.8269 C   0  0  0  0  0  0  0  0  0  0  0  0
    8.2833   13.1836   -2.0284 C   0  0  1  0  0  0  0  0  0  0  0  0
    9.2071   14.3008   -2.1239 O   0  0  0  0  0  0  0  0  0  0  0  0
    9.8277   14.2478   -3.4284 C   0  0  1  0  0  0  0  0  0  0  0  0
   11.1346   14.8596   -3.3350 N   0  0  0  0  0  0  0  0  0  0  0  0
   11.3268   16.2007   -3.0939 C   0  0  0  0  0  0  0  0  0  0  0  0
   12.6005   16.5292   -3.0874 N   0  0  0  0  0  0  0  0  0  0  0  0
   13.2645   15.3481   -3.3375 C   0  0  0  0  0  0  0  0  0  0  0  0
   14.6321   15.0409   -3.4399 C   0  0  0  0  0  0  0  0  0  0  0  0
   15.6365   15.9912   -3.3070 N   0  0  0  0  0  0  0  0  0  0  0  0
   14.9912   13.7557   -3.6538 N   0  0  0  0  0  0  0  0  0  0  0  0
   14.0151   12.8368   -3.8072 C   0  0  0  0  0  0  0  0  0  0  0  0
   12.6788   13.0187   -3.7701 N   0  0  0  0  0  0  0  0  0  0  0  0
   12.3708   14.2993   -3.5042 C   0  0  0  0  0  0  0  0  0  0  0  0
    9.7278   12.7906   -3.8838 C   0  0  2  0  0  0  0  0  0  0  0  0
    9.7883   12.6141   -5.2994 O   0  0  0  0  0  0  0  0  0  0  0  0
    8.3455   12.4379   -3.3615 C   0  0  2  0  0  0  0  0  0  0  0  0
    7.3547   12.9672   -4.2569 O   0  0  0  0  0  0  0  0  0  0  0  0
    8.3288    3.9415    4.9227 C   0  0  0  0  0  0  0  0  0  0  0  0
    8.8988    3.0514    4.0459 N   0  0  0  0  0  0  0  0  0  0  0  0
    9.7209    2.0213    4.3922 C   0  0  0  0  0  0  0  0  0  0  0  0
   10.1479    1.2366    3.5499 O   0  0  0  0  0  0  0  0  0  0  0  0
   10.0243    1.9067    5.7107 N   0  0  0  0  0  0  0  0  0  0  0  0
    9.4879    2.6840    6.6927 C   0  0  0  0  0  0  0  0  0  0  0  0
    9.7082    2.4809    7.8846 O   0  0  0  0  0  0  0  0  0  0  0  0
    8.5930    3.7908    6.2437 C   0  0  0  0  0  0  0  0  0  0  0  0
    8.0559    4.6102    7.2143 N   0  0  0  0  0  0  0  0  0  0  0  0
    5.2005    7.7678    9.6123 H   0  0  0  0  0  0  0  0  0  0  0  0
    3.6597    7.5457    8.7688 H   0  0  0  0  0  0  0  0  0  0  0  0
    4.6762    8.9811    8.4479 H   0  0  0  0  0  0  0  0  0  0  0  0
    6.6598    6.0810    8.9032 H   0  0  0  0  0  0  0  0  0  0  0  0
    5.4270    6.8272    4.1649 H   0  0  0  0  0  0  0  0  0  0  0  0
    3.5976    8.1093    4.7676 H   0  0  0  0  0  0  0  0  0  0  0  0
    4.2885    9.3271    5.8589 H   0  0  0  0  0  0  0  0  0  0  0  0
    3.0505    8.1749    6.4358 H   0  0  0  0  0  0  0  0  0  0  0  0
    8.5345    5.3858    2.7302 H   0  0  0  0  0  0  0  0  0  0  0  0
    7.3777    6.6244    3.1393 H   0  0  0  0  0  0  0  0  0  0  0  0
    6.3866    3.8157    2.4601 H   0  0  0  0  0  0  0  0  0  0  0  0
    4.6233    4.9554    1.6729 H   0  0  0  0  0  0  0  0  0  0  0  0
    7.9232    4.5006    0.5133 H   0  0  0  0  0  0  0  0  0  0  0  0
    6.2724    3.0742    0.2217 H   0  0  0  0  0  0  0  0  0  0  0  0
    5.7382    6.6633    0.1391 H   0  0  0  0  0  0  0  0  0  0  0  0
    6.2589    5.1645   -1.5968 H   0  0  0  0  0  0  0  0  0  0  0  0
    7.7821    7.6300    1.2766 H   0  0  0  0  0  0  0  0  0  0  0  0
    7.5725    8.2001   -0.3863 H   0  0  0  0  0  0  0  0  0  0  0  0
   11.9045    6.5684   -0.6418 H   0  0  0  0  0  0  0  0  0  0  0  0
   12.4277   11.2192    0.4686 H   0  0  0  0  0  0  0  0  0  0  0  0
    8.7059   12.9330    0.0759 H   0  0  0  0  0  0  0  0  0  0  0  0
    7.9224   11.5232   -0.6862 H   0  0  0  0  0  0  0  0  0  0  0  0
    7.2884   13.6095   -1.8563 H   0  0  0  0  0  0  0  0  0  0  0  0
    9.2481   14.8918   -4.1046 H   0  0  0  0  0  0  0  0  0  0  0  0
   10.4998   16.8813   -2.9295 H   0  0  0  0  0  0  0  0  0  0  0  0
   15.3337   16.8318   -2.8271 H   0  0  0  0  0  0  0  0  0  0  0  0
   16.5183   15.5814   -3.0298 H   0  0  0  0  0  0  0  0  0  0  0  0
   14.3516   11.8181   -3.9806 H   0  0  0  0  0  0  0  0  0  0  0  0
   10.4589   12.1343   -3.4063 H   0  0  0  0  0  0  0  0  0  0  0  0
   10.7399   12.5966   -5.5258 H   0  0  0  0  0  0  0  0  0  0  0  0
    8.1660   11.3620   -3.2834 H   0  0  0  0  0  0  0  0  0  0  0  0
    7.6762   12.7434   -5.1559 H   0  0  0  0  0  0  0  0  0  0  0  0
    8.6766    3.1030    3.0663 H   0  0  0  0  0  0  0  0  0  0  0  0
   10.6149    1.1409    5.9937 H   0  0  0  0  0  0  0  0  0  0  0  0
    8.1372    4.2818    8.1701 H   0  0  0  0  0  0  0  0  0  0  0  0
  1  2  1  0  0  0  0
  1 54  1  0  0  0  0
  1 55  1  0  0  0  0
  1 56  1  0  0  0  0
  2  3  1  0  0  0  0
  2  7  2  0  0  0  0
  3  4  2  0  0  0  0
  3 57  1  0  0  0  0
  4  5  1  0  0  0  0
  4 53  1  0  0  0  0
  5  6  2  0  0  0  0
  5  9  1  0  0  0  0
  6  7  1  0  0  0  0
  6 58  1  0  0  0  0
  7  8  1  0  0  0  0
  8 59  1  0  0  0  0
  8 60  1  0  0  0  0
  8 61  1  0  0  0  0
  9 10  1  0  0  0  0
  9 45  1  0  0  0  0
 10 62  1  0  0  0  0
 10 63  1  0  0  0  0
 11 12  1  0  0  0  0
 11 10  1  0  0  0  0
 11 64  1  6  0  0  0
 12 65  1  0  0  0  0
 13 14  1  0  0  0  0
 13 11  1  0  0  0  0
 13 66  1  1  0  0  0
 14 67  1  0  0  0  0
 15 17  1  0  0  0  0
 15 16  1  0  0  0  0
 15 13  1  0  0  0  0
 15 68  1  1  0  0  0
 16 69  1  0  0  0  0
 17 18  1  0  0  0  0
 17 70  1  0  0  0  0
 17 71  1  0  0  0  0
 18 19  1  0  0  0  0
 19 20  2  0  0  0  0
 19 21  1  0  0  0  0
 19 22  1  0  0  0  0
 21 72  1  0  0  0  0
 22 23  1  0  0  0  0
 23 24  2  0  0  0  0
 23 25  1  0  0  0  0
 23 26  1  0  0  0  0
 25 73  1  0  0  0  0
 26 27  1  0  0  0  0
 27 28  1  0  0  0  0
 27 74  1  0  0  0  0
 27 75  1  0  0  0  0
 28 29  1  0  0  0  0
 28 43  1  0  0  0  0
 28 76  1  1  0  0  0
 29 30  1  0  0  0  0
 30 31  1  0  0  0  0
 30 41  1  0  0  0  0
 30 77  1  6  0  0  0
 31 32  1  0  0  0  0
 31 40  1  0  0  0  0
 32 33  2  0  0  0  0
 32 78  1  0  0  0  0
 33 34  1  0  0  0  0
 34 35  1  0  0  0  0
 34 40  2  0  0  0  0
 35 36  1  0  0  0  0
 35 37  2  0  0  0  0
 36 79  1  0  0  0  0
 36 80  1  0  0  0  0
 37 38  1  0  0  0  0
 38 39  2  0  0  0  0
 38 81  1  0  0  0  0
 39 40  1  0  0  0  0
 41 42  1  0  0  0  0
 41 43  1  0  0  0  0
 41 82  1  1  0  0  0
 42 83  1  0  0  0  0
 43 44  1  0  0  0  0
 43 84  1  1  0  0  0
 44 85  1  0  0  0  0
 45 46  1  0  0  0  0
 45 52  2  0  0  0  0
 46 47  1  0  0  0  0
 46 86  1  0  0  0  0
 47 48  2  0  0  0  0
 47 49  1  0  0  0  0
 49 50  1  0  0  0  0
 49 87  1  0  0  0  0
 50 51  2  0  0  0  0
 50 52  1  0  0  0  0
 52 53  1  0  0  0  0
 53 88  1  0  0  0  0
M  END
$$$$
