CHEBI:18426
 OpenBabel04252409363D

 26 27  0  0  1  0  0  0  0  0999 V2000
    3.6332   -0.6661   -1.6437 O   0  0  0  0  0  0  0  0  0  0  0  0
    2.6711   -0.3508   -0.5579 P   0  0  0  0  0  0  0  0  0  0  0  0
    3.3306    0.5051    0.6253 O   0  0  0  0  0  0  0  0  0  0  0  0
    1.9512   -1.5515    0.2528 O   0  0  0  0  0  0  0  0  0  0  0  0
    0.5268   -1.4284    0.0586 C   0  0  2  0  0  0  0  0  0  0  0  0
    0.0851   -2.2992   -1.1388 C   0  0  2  0  0  0  0  0  0  0  0  0
    1.0595   -2.2442   -2.1882 O   0  0  0  0  0  0  0  0  0  0  0  0
   -1.3056   -1.9016   -1.6723 C   0  0  1  0  0  0  0  0  0  0  0  0
   -2.3216   -2.2785   -0.7422 O   0  0  0  0  0  0  0  0  0  0  0  0
   -1.3376   -0.3906   -2.0011 C   0  0  2  0  0  0  0  0  0  0  0  0
   -0.3880   -0.1200   -3.0391 O   0  0  0  0  0  0  0  0  0  0  0  0
   -1.0572    0.4407   -0.7323 C   0  0  1  0  0  0  0  0  0  0  0  0
   -2.1035    0.2099    0.2183 O   0  0  0  0  0  0  0  0  0  0  0  0
    0.2952    0.0841   -0.1179 C   0  0  2  0  0  0  0  0  0  0  0  0
    1.3720    0.5378   -0.9443 O   0  0  0  0  0  0  0  0  0  0  0  0
    4.2421    0.1913    0.7760 H   0  0  0  0  0  0  0  0  0  0  0  0
    0.0131   -1.7691    0.9648 H   0  0  0  0  0  0  0  0  0  0  0  0
    0.0666   -3.3417   -0.7999 H   0  0  0  0  0  0  0  0  0  0  0  0
    0.7858   -1.5660   -2.8412 H   0  0  0  0  0  0  0  0  0  0  0  0
   -1.4863   -2.4588   -2.5998 H   0  0  0  0  0  0  0  0  0  0  0  0
   -2.5972   -1.4821   -0.2407 H   0  0  0  0  0  0  0  0  0  0  0  0
   -2.3343   -0.1330   -2.3777 H   0  0  0  0  0  0  0  0  0  0  0  0
    0.0269    0.7502   -2.8793 H   0  0  0  0  0  0  0  0  0  0  0  0
   -1.0670    1.5036   -1.0027 H   0  0  0  0  0  0  0  0  0  0  0  0
   -2.1042    0.9583    0.8462 H   0  0  0  0  0  0  0  0  0  0  0  0
    0.4048    0.5792    0.8557 H   0  0  0  0  0  0  0  0  0  0  0  0
  1  2  2  0  0  0  0
  2  3  1  0  0  0  0
  2  4  1  0  0  0  0
  2 15  1  0  0  0  0
  3 16  1  0  0  0  0
  4  5  1  0  0  0  0
  5  6  1  0  0  0  0
  5 14  1  0  0  0  0
  5 17  1  1  0  0  0
  6  8  1  0  0  0  0
  6  7  1  0  0  0  0
  6 18  1  1  0  0  0
  7 19  1  0  0  0  0
  8  9  1  0  0  0  0
  8 10  1  0  0  0  0
  8 20  1  6  0  0  0
  9 21  1  0  0  0  0
 10 12  1  0  0  0  0
 10 11  1  0  0  0  0
 10 22  1  6  0  0  0
 11 23  1  0  0  0  0
 12 13  1  0  0  0  0
 12 14  1  0  0  0  0
 12 24  1  6  0  0  0
 13 25  1  0  0  0  0
 14 15  1  0  0  0  0
 14 26  1  1  0  0  0
M  END
$$$$
