CHEBI:17506
 OpenBabel04242416423D

 40 40  0  0  1  0  0  0  0  0999 V2000
   11.2696   -6.3601   -1.7871 O   0  0  0  0  0  0  0  0  0  0  0  0
   12.4664   -6.5464   -0.9155 P   0  0  0  0  0  0  0  0  0  0  0  0
   12.2098   -6.3501    0.6418 O   0  0  0  0  0  0  0  0  0  0  0  0
   12.9789   -8.0588   -0.9835 O   0  0  0  0  0  0  0  0  0  0  0  0
   13.7642   -5.6833   -1.2624 O   0  0  0  0  0  0  0  0  0  0  0  0
   13.6238   -4.4172   -1.8850 C   0  0  0  0  0  0  0  0  0  0  0  0
   13.0852   -3.3372   -0.9288 C   0  0  1  0  0  0  0  0  0  0  0  0
   13.3624   -1.9597   -1.5643 C   0  0  0  0  0  0  0  0  0  0  0  0
   13.2817   -0.9079   -0.6045 O   0  0  0  0  0  0  0  0  0  0  0  0
   11.6782   -3.6028   -0.7754 O   0  0  0  0  0  0  0  0  0  0  0  0
   11.0264   -2.8967    0.2833 C   0  0  1  0  0  0  0  0  0  0  0  0
   10.6361   -1.5867   -0.1217 O   0  0  0  0  0  0  0  0  0  0  0  0
    9.7414   -1.5863   -1.2511 C   0  0  2  0  0  0  0  0  0  0  0  0
    9.5644   -0.1176   -1.6351 C   0  0  0  0  0  0  0  0  0  0  0  0
   10.8546    0.4486   -1.8859 O   0  0  0  0  0  0  0  0  0  0  0  0
    8.4264   -2.3051   -0.9206 C   0  0  2  0  0  0  0  0  0  0  0  0
    7.6791   -1.6400    0.1146 O   0  0  0  0  0  0  0  0  0  0  0  0
    8.7346   -3.7164   -0.4058 C   0  0  2  0  0  0  0  0  0  0  0  0
    7.5331   -4.3247    0.1058 O   0  0  0  0  0  0  0  0  0  0  0  0
    9.7689   -3.6776    0.7275 C   0  0  1  0  0  0  0  0  0  0  0  0
   10.0727   -5.0285    1.1257 O   0  0  0  0  0  0  0  0  0  0  0  0
   11.4080   -5.8009    0.8103 H   0  0  0  0  0  0  0  0  0  0  0  0
   12.6798   -8.4743   -1.8105 H   0  0  0  0  0  0  0  0  0  0  0  0
   12.9818   -4.5231   -2.7668 H   0  0  0  0  0  0  0  0  0  0  0  0
   14.6255   -4.1471   -2.2354 H   0  0  0  0  0  0  0  0  0  0  0  0
   13.5712   -3.4301    0.0496 H   0  0  0  0  0  0  0  0  0  0  0  0
   12.6482   -1.7478   -2.3657 H   0  0  0  0  0  0  0  0  0  0  0  0
   14.3760   -1.9236   -1.9769 H   0  0  0  0  0  0  0  0  0  0  0  0
   13.6085   -0.1019   -1.0448 H   0  0  0  0  0  0  0  0  0  0  0  0
   11.7049   -2.8181    1.1406 H   0  0  0  0  0  0  0  0  0  0  0  0
   10.2416   -2.0938   -2.0853 H   0  0  0  0  0  0  0  0  0  0  0  0
    8.9533   -0.0078   -2.5351 H   0  0  0  0  0  0  0  0  0  0  0  0
    9.1177    0.4636   -0.8229 H   0  0  0  0  0  0  0  0  0  0  0  0
   11.4070    0.1265   -1.1389 H   0  0  0  0  0  0  0  0  0  0  0  0
    7.7710   -2.3606   -1.7967 H   0  0  0  0  0  0  0  0  0  0  0  0
    7.3519   -0.7944   -0.2404 H   0  0  0  0  0  0  0  0  0  0  0  0
    9.0904   -4.3577   -1.2200 H   0  0  0  0  0  0  0  0  0  0  0  0
    7.0487   -3.5951    0.5465 H   0  0  0  0  0  0  0  0  0  0  0  0
    9.3288   -3.1867    1.6045 H   0  0  0  0  0  0  0  0  0  0  0  0
    9.1933   -5.4673    1.1655 H   0  0  0  0  0  0  0  0  0  0  0  0
  1  2  2  0  0  0  0
  2  3  1  0  0  0  0
  2  4  1  0  0  0  0
  2  5  1  0  0  0  0
  3 22  1  0  0  0  0
  4 23  1  0  0  0  0
  5  6  1  0  0  0  0
  6  7  1  0  0  0  0
  6 24  1  0  0  0  0
  6 25  1  0  0  0  0
  7  8  1  0  0  0  0
  7 10  1  0  0  0  0
  7 26  1  1  0  0  0
  8  9  1  0  0  0  0
  8 27  1  0  0  0  0
  8 28  1  0  0  0  0
  9 29  1  0  0  0  0
 10 11  1  0  0  0  0
 11 12  1  0  0  0  0
 11 20  1  0  0  0  0
 11 30  1  1  0  0  0
 12 13  1  0  0  0  0
 13 16  1  0  0  0  0
 13 14  1  0  0  0  0
 13 31  1  6  0  0  0
 14 15  1  0  0  0  0
 14 32  1  0  0  0  0
 14 33  1  0  0  0  0
 15 34  1  0  0  0  0
 16 17  1  0  0  0  0
 16 18  1  0  0  0  0
 16 35  1  6  0  0  0
 17 36  1  0  0  0  0
 18 19  1  0  0  0  0
 18 20  1  0  0  0  0
 18 37  1  6  0  0  0
 19 38  1  0  0  0  0
 20 21  1  0  0  0  0
 20 39  1  1  0  0  0
 21 40  1  0  0  0  0
M  END
$$$$
