CHEBI:16689
 OpenBabel04242415043D

 20 19  0  0  1  0  0  0  0  0999 V2000
    1.1467   -0.5031    0.0054 O   0  0  0  0  0  0  0  0  0  0  0  0
    2.2546    0.0016    0.1856 C   0  0  0  0  0  0  0  0  0  0  0  0
    2.8673    0.9759   -0.8105 C   0  0  2  0  0  0  0  0  0  0  0  0
    2.0833    1.0291   -2.0016 O   0  0  0  0  0  0  0  0  0  0  0  0
    4.3270    0.6068   -1.1267 C   0  0  0  0  0  0  0  0  0  0  0  0
    5.0850    0.6100    0.1020 O   0  0  0  0  0  0  0  0  0  0  0  0
    4.4547   -0.7939   -1.7685 C   0  0  0  0  0  0  0  0  0  0  0  0
    5.8309   -1.1802   -1.8681 O   0  0  0  0  0  0  0  0  0  0  0  0
    4.9417    1.6853   -2.0506 C   0  0  0  0  0  0  0  0  0  0  0  0
    6.3054    1.3638   -2.3606 O   0  0  0  0  0  0  0  0  0  0  0  0
    2.8241   -0.1769    1.1134 H   0  0  0  0  0  0  0  0  0  0  0  0
    2.8230    1.9606   -0.3301 H   0  0  0  0  0  0  0  0  0  0  0  0
    1.1785    0.7503   -1.7448 H   0  0  0  0  0  0  0  0  0  0  0  0
    5.9595    0.2384   -0.1438 H   0  0  0  0  0  0  0  0  0  0  0  0
    4.0089   -0.8275   -2.7677 H   0  0  0  0  0  0  0  0  0  0  0  0
    3.9743   -1.5570   -1.1491 H   0  0  0  0  0  0  0  0  0  0  0  0
    6.2964   -0.4355   -2.3087 H   0  0  0  0  0  0  0  0  0  0  0  0
    4.9455    2.6589   -1.5484 H   0  0  0  0  0  0  0  0  0  0  0  0
    4.3958    1.7684   -2.9956 H   0  0  0  0  0  0  0  0  0  0  0  0
    6.6694    2.1375   -2.8310 H   0  0  0  0  0  0  0  0  0  0  0  0
  1  2  2  0  0  0  0
  2 11  1  0  0  0  0
  3  5  1  0  0  0  0
  3  4  1  0  0  0  0
  3  2  1  0  0  0  0
  3 12  1  1  0  0  0
  4 13  1  0  0  0  0
  5  6  1  0  0  0  0
  5  7  1  0  0  0  0
  5  9  1  0  0  0  0
  6 14  1  0  0  0  0
  7  8  1  0  0  0  0
  7 15  1  0  0  0  0
  7 16  1  0  0  0  0
  8 17  1  0  0  0  0
  9 10  1  0  0  0  0
  9 18  1  0  0  0  0
  9 19  1  0  0  0  0
 10 20  1  0  0  0  0
M  END
$$$$
