CHEBI:10642
 OpenBabel04242411423D

 24 24  0  0  1  0  0  0  0  0999 V2000
    2.7385    0.0867    1.4809 O   0  0  0  0  0  0  0  0  0  0  0  0
    2.3124   -0.1385    0.1292 C   0  0  1  0  0  0  0  0  0  0  0  0
    2.8109    0.9950   -0.7709 C   0  0  2  0  0  0  0  0  0  0  0  0
    2.2137    2.2244   -0.3337 O   0  0  0  0  0  0  0  0  0  0  0  0
    2.4524    0.7326   -2.2358 C   0  0  1  0  0  0  0  0  0  0  0  0
    3.0050    1.7856   -3.0390 O   0  0  0  0  0  0  0  0  0  0  0  0
    2.9968   -0.6200   -2.7022 C   0  0  2  0  0  0  0  0  0  0  0  0
    2.5694   -0.8452   -4.0534 O   0  0  0  0  0  0  0  0  0  0  0  0
    2.4998   -1.7541   -1.8018 C   0  0  1  0  0  0  0  0  0  0  0  0
    3.0992   -2.9826   -2.2386 O   0  0  0  0  0  0  0  0  0  0  0  0
    2.8569   -1.4914   -0.3365 C   0  0  2  0  0  0  0  0  0  0  0  0
    2.3033   -2.5441    0.4663 O   0  0  0  0  0  0  0  0  0  0  0  0
    2.5225    1.0255    1.6609 H   0  0  0  0  0  0  0  0  0  0  0  0
    1.2160   -0.1561    0.1613 H   0  0  0  0  0  0  0  0  0  0  0  0
    3.8931    1.1311   -0.6537 H   0  0  0  0  0  0  0  0  0  0  0  0
    2.4186    2.8706   -1.0413 H   0  0  0  0  0  0  0  0  0  0  0  0
    1.3663    0.7856   -2.3810 H   0  0  0  0  0  0  0  0  0  0  0  0
    2.9044    1.4774   -3.9638 H   0  0  0  0  0  0  0  0  0  0  0  0
    4.0932   -0.6020   -2.7354 H   0  0  0  0  0  0  0  0  0  0  0  0
    2.7863   -1.7837   -4.2341 H   0  0  0  0  0  0  0  0  0  0  0  0
    1.4179   -1.8920   -1.9196 H   0  0  0  0  0  0  0  0  0  0  0  0
    2.8954   -3.6290   -1.5308 H   0  0  0  0  0  0  0  0  0  0  0  0
    3.9428   -1.5446   -0.1902 H   0  0  0  0  0  0  0  0  0  0  0  0
    2.4019   -2.2353    1.3911 H   0  0  0  0  0  0  0  0  0  0  0  0
  1 13  1  0  0  0  0
  2  3  1  0  0  0  0
  2 11  1  0  0  0  0
  2  1  1  0  0  0  0
  2 14  1  6  0  0  0
  3  5  1  0  0  0  0
  3  4  1  0  0  0  0
  3 15  1  1  0  0  0
  4 16  1  0  0  0  0
  5  6  1  0  0  0  0
  5  7  1  0  0  0  0
  5 17  1  6  0  0  0
  6 18  1  0  0  0  0
  7  9  1  0  0  0  0
  7  8  1  0  0  0  0
  7 19  1  1  0  0  0
  8 20  1  0  0  0  0
  9 10  1  0  0  0  0
  9 11  1  0  0  0  0
  9 21  1  6  0  0  0
 10 22  1  0  0  0  0
 11 12  1  0  0  0  0
 11 23  1  1  0  0  0
 12 24  1  0  0  0  0
M  END
$$$$
