CHEBI:15429
 OpenBabel04242411523D

  5  4  0  0  0  0  0  0  0  0999 V2000
    1.0237   -0.0982   -0.0720 N   0  0  0  0  0  0  0  0  0  0  0  0
    2.4491   -0.1378   -0.3549 O   0  0  0  0  0  0  0  0  0  0  0  0
    0.6274   -0.4828   -0.9336 H   0  0  0  0  0  0  0  0  0  0  0  0
    0.8307    0.9063   -0.1038 H   0  0  0  0  0  0  0  0  0  0  0  0
    2.7987   -0.6453    0.4056 H   0  0  0  0  0  0  0  0  0  0  0  0
  1  2  1  0  0  0  0
  1  3  1  0  0  0  0
  1  4  1  0  0  0  0
  2  5  1  0  0  0  0
M  END
$$$$
