CHEBI:16409
 OpenBabel04242414213D

 22 22  0  0  0  0  0  0  0  0999 V2000
   -1.3960   -0.9758   -0.9606 C   0  0  0  0  0  0  0  0  0  0  0  0
   -0.5242   -0.1019   -0.1083 C   0  0  0  0  0  0  0  0  0  0  0  0
    0.7410    0.0710   -0.5548 N   0  0  0  0  0  0  0  0  0  0  0  0
    1.5648    0.8428    0.1926 C   0  0  0  0  0  0  0  0  0  0  0  0
    1.1866    1.4784    1.3703 C   0  0  0  0  0  0  0  0  0  0  0  0
    2.2475    2.2592    2.0422 C   0  0  0  0  0  0  0  0  0  0  0  0
    3.4037    1.8711    2.0816 O   0  0  0  0  0  0  0  0  0  0  0  0
    1.8636    3.4598    2.5134 O   0  0  0  0  0  0  0  0  0  0  0  0
   -0.1233    1.2919    1.8455 C   0  0  0  0  0  0  0  0  0  0  0  0
   -0.5955    1.8945    3.1371 C   0  0  0  0  0  0  0  0  0  0  0  0
   -0.5897    3.3157    2.9892 O   0  0  0  0  0  0  0  0  0  0  0  0
   -0.9828    0.4841    1.0797 C   0  0  0  0  0  0  0  0  0  0  0  0
   -2.2568    0.2898    1.5438 O   0  0  0  0  0  0  0  0  0  0  0  0
   -0.8548   -1.3216   -1.8476 H   0  0  0  0  0  0  0  0  0  0  0  0
   -2.2760   -0.4212   -1.3005 H   0  0  0  0  0  0  0  0  0  0  0  0
   -1.7151   -1.8581   -0.3972 H   0  0  0  0  0  0  0  0  0  0  0  0
    2.5756    0.9394   -0.2003 H   0  0  0  0  0  0  0  0  0  0  0  0
    0.8930    3.6362    2.4488 H   0  0  0  0  0  0  0  0  0  0  0  0
    0.0724    1.6157    3.9589 H   0  0  0  0  0  0  0  0  0  0  0  0
   -1.6084    1.5860    3.4106 H   0  0  0  0  0  0  0  0  0  0  0  0
   -1.1237    3.6607    3.7311 H   0  0  0  0  0  0  0  0  0  0  0  0
   -2.7589   -0.2700    0.9290 H   0  0  0  0  0  0  0  0  0  0  0  0
  1  2  1  0  0  0  0
  1 14  1  0  0  0  0
  1 15  1  0  0  0  0
  1 16  1  0  0  0  0
  2  3  1  0  0  0  0
  2 12  2  0  0  0  0
  3  4  2  0  0  0  0
  4  5  1  0  0  0  0
  4 17  1  0  0  0  0
  5  6  1  0  0  0  0
  5  9  2  0  0  0  0
  6  7  2  0  0  0  0
  6  8  1  0  0  0  0
  8 18  1  0  0  0  0
  9 10  1  0  0  0  0
  9 12  1  0  0  0  0
 10 11  1  0  0  0  0
 10 19  1  0  0  0  0
 10 20  1  0  0  0  0
 11 21  1  0  0  0  0
 12 13  1  0  0  0  0
 13 22  1  0  0  0  0
M  END
$$$$
