CHEBI:4670
 OpenBabel04242410593D

 45 46  0  0  0  0  0  0  0  0999 V2000
    2.4469    0.6580    0.0443 C   0  0  0  0  0  0  0  0  0  0  0  0
    1.9280   -0.7400    0.4032 C   0  0  0  0  0  0  0  0  0  0  0  0
    0.3915   -0.8075    0.2977 C   0  0  0  0  0  0  0  0  0  0  0  0
   -0.1618   -0.6285   -1.1209 C   0  0  0  0  0  0  0  0  0  0  0  0
   -1.6690   -0.7346   -1.1388 C   0  0  0  0  0  0  0  0  0  0  0  0
   -2.4666    0.4035   -0.9492 C   0  0  0  0  0  0  0  0  0  0  0  0
   -3.8597    0.3000   -0.9433 C   0  0  0  0  0  0  0  0  0  0  0  0
   -4.4540   -0.9447   -1.1228 C   0  0  0  0  0  0  0  0  0  0  0  0
   -5.8098   -1.0917   -1.1210 O   0  0  0  0  0  0  0  0  0  0  0  0
   -3.6796   -2.0835   -1.3074 C   0  0  0  0  0  0  0  0  0  0  0  0
   -2.2881   -1.9799   -1.3129 C   0  0  0  0  0  0  0  0  0  0  0  0
    2.6255   -1.7153   -0.4474 N   0  0  0  0  0  0  0  0  0  0  0  0
    2.4338   -3.1075   -0.0160 C   0  0  0  0  0  0  0  0  0  0  0  0
    3.3046   -4.0351   -0.8776 C   0  0  0  0  0  0  0  0  0  0  0  0
    3.1645   -5.4961   -0.5208 C   0  0  0  0  0  0  0  0  0  0  0  0
    2.5370   -6.3875   -1.4088 C   0  0  0  0  0  0  0  0  0  0  0  0
    2.4453   -7.7514   -1.1117 C   0  0  0  0  0  0  0  0  0  0  0  0
    2.9803   -8.2222    0.0801 C   0  0  0  0  0  0  0  0  0  0  0  0
    2.9365   -9.5462    0.4201 O   0  0  0  0  0  0  0  0  0  0  0  0
    3.5920   -7.3442    0.9703 C   0  0  0  0  0  0  0  0  0  0  0  0
    4.1161   -7.8165    2.1400 O   0  0  0  0  0  0  0  0  0  0  0  0
    3.6897   -5.9894    0.6825 C   0  0  0  0  0  0  0  0  0  0  0  0
    1.9305    1.4273    0.6281 H   0  0  0  0  0  0  0  0  0  0  0  0
    2.3094    0.8883   -1.0178 H   0  0  0  0  0  0  0  0  0  0  0  0
    3.5177    0.7428    0.2630 H   0  0  0  0  0  0  0  0  0  0  0  0
    2.2028   -0.9186    1.4512 H   0  0  0  0  0  0  0  0  0  0  0  0
   -0.0369   -0.0349    0.9510 H   0  0  0  0  0  0  0  0  0  0  0  0
    0.0401   -1.7618    0.7106 H   0  0  0  0  0  0  0  0  0  0  0  0
    0.2566   -1.3809   -1.8002 H   0  0  0  0  0  0  0  0  0  0  0  0
    0.1276    0.3460   -1.5312 H   0  0  0  0  0  0  0  0  0  0  0  0
   -2.0043    1.3771   -0.8041 H   0  0  0  0  0  0  0  0  0  0  0  0
   -4.4572    1.1938   -0.7967 H   0  0  0  0  0  0  0  0  0  0  0  0
   -6.2127   -0.2203   -0.9755 H   0  0  0  0  0  0  0  0  0  0  0  0
   -4.1568   -3.0493   -1.4439 H   0  0  0  0  0  0  0  0  0  0  0  0
   -1.6880   -2.8763   -1.4519 H   0  0  0  0  0  0  0  0  0  0  0  0
    3.6251   -1.5070   -0.4385 H   0  0  0  0  0  0  0  0  0  0  0  0
    1.3839   -3.4021   -0.1232 H   0  0  0  0  0  0  0  0  0  0  0  0
    2.7081   -3.2153    1.0403 H   0  0  0  0  0  0  0  0  0  0  0  0
    4.3632   -3.7596   -0.7807 H   0  0  0  0  0  0  0  0  0  0  0  0
    3.0521   -3.8912   -1.9365 H   0  0  0  0  0  0  0  0  0  0  0  0
    2.1250   -6.0229   -2.3481 H   0  0  0  0  0  0  0  0  0  0  0  0
    1.9644   -8.4184   -1.8197 H   0  0  0  0  0  0  0  0  0  0  0  0
    2.5148  -10.0298   -0.3110 H   0  0  0  0  0  0  0  0  0  0  0  0
    3.9374   -8.7777    2.1146 H   0  0  0  0  0  0  0  0  0  0  0  0
    4.1864   -5.3306    1.3892 H   0  0  0  0  0  0  0  0  0  0  0  0
  1  2  1  0  0  0  0
  1 23  1  0  0  0  0
  1 24  1  0  0  0  0
  1 25  1  0  0  0  0
  2  3  1  0  0  0  0
  2 12  1  0  0  0  0
  2 26  1  0  0  0  0
  3  4  1  0  0  0  0
  3 27  1  0  0  0  0
  3 28  1  0  0  0  0
  4  5  1  0  0  0  0
  4 29  1  0  0  0  0
  4 30  1  0  0  0  0
  5  6  1  0  0  0  0
  5 11  2  0  0  0  0
  6  7  2  0  0  0  0
  6 31  1  0  0  0  0
  7  8  1  0  0  0  0
  7 32  1  0  0  0  0
  8  9  1  0  0  0  0
  8 10  2  0  0  0  0
  9 33  1  0  0  0  0
 10 11  1  0  0  0  0
 10 34  1  0  0  0  0
 11 35  1  0  0  0  0
 12 13  1  0  0  0  0
 12 36  1  0  0  0  0
 13 14  1  0  0  0  0
 13 37  1  0  0  0  0
 13 38  1  0  0  0  0
 14 15  1  0  0  0  0
 14 39  1  0  0  0  0
 14 40  1  0  0  0  0
 15 16  1  0  0  0  0
 15 22  2  0  0  0  0
 16 17  2  0  0  0  0
 16 41  1  0  0  0  0
 17 18  1  0  0  0  0
 17 42  1  0  0  0  0
 18 19  1  0  0  0  0
 18 20  2  0  0  0  0
 19 43  1  0  0  0  0
 20 21  1  0  0  0  0
 20 22  1  0  0  0  0
 21 44  1  0  0  0  0
 22 45  1  0  0  0  0
M  END
$$$$
