CHEBI:16553
 OpenBabel04242414453D

 57 59  0  0  1  0  0  0  0  0999 V2000
   -1.4981    5.4355    7.7871 C   0  0  0  0  0  0  0  0  0  0  0  0
   -1.5524    4.3820    6.6926 C   0  0  1  0  0  0  0  0  0  0  0  0
   -2.7366    4.6142    5.9366 O   0  0  0  0  0  0  0  0  0  0  0  0
   -2.8888    3.7514    4.8072 C   0  0  0  0  0  0  0  0  0  0  0  0
   -4.1384    4.0095    4.1939 O   0  0  0  0  0  0  0  0  0  0  0  0
   -4.4112    5.3050    3.3034 P   0  0  0  0  0  0  0  0  0  0  0  0
   -5.8458    5.6332    3.0468 O   0  0  0  0  0  0  0  0  0  0  0  0
   -3.6721    6.4854    4.0988 O   0  0  0  0  0  0  0  0  0  0  0  0
   -3.5361    5.1724    1.9917 O   0  0  0  0  0  0  0  0  0  0  0  0
   -3.9331    4.1934    0.8115 P   0  0  0  0  0  0  0  0  0  0  0  0
   -4.6419    2.9325    1.1696 O   0  0  0  0  0  0  0  0  0  0  0  0
   -4.7899    5.1294   -0.1666 O   0  0  0  0  0  0  0  0  0  0  0  0
   -2.5550    4.0324   -0.0051 O   0  0  0  0  0  0  0  0  0  0  0  0
   -2.4020    2.8344   -0.7428 C   0  0  0  0  0  0  0  0  0  0  0  0
   -1.0600    2.8282   -1.4633 C   0  0  1  0  0  0  0  0  0  0  0  0
   -0.9389    1.6155   -2.2185 O   0  0  0  0  0  0  0  0  0  0  0  0
   -0.2417    1.9159   -3.4422 C   0  0  1  0  0  0  0  0  0  0  0  0
   -1.0155    1.3223   -4.5414 N   0  0  0  0  0  0  0  0  0  0  0  0
   -0.7955   -0.0166   -4.8281 C   0  0  0  0  0  0  0  0  0  0  0  0
   -1.5110   -0.6828   -5.7358 C   0  0  0  0  0  0  0  0  0  0  0  0
   -2.5783    0.0254   -6.4544 C   0  0  0  0  0  0  0  0  0  0  0  0
   -3.2579   -0.5395   -7.3003 O   0  0  0  0  0  0  0  0  0  0  0  0
   -2.7559    1.3304   -6.1030 N   0  0  0  0  0  0  0  0  0  0  0  0
   -2.0538    2.0146   -5.1463 C   0  0  0  0  0  0  0  0  0  0  0  0
   -2.3725    3.1720   -4.8871 O   0  0  0  0  0  0  0  0  0  0  0  0
    0.0553    3.4281   -3.4683 C   0  0  2  0  0  0  0  0  0  0  0  0
    1.4079    3.6714   -3.0213 O   0  0  0  0  0  0  0  0  0  0  0  0
   -0.9072    3.9941   -2.4359 C   0  0  2  0  0  0  0  0  0  0  0  0
   -0.3617    5.1647   -1.8212 O   0  0  0  0  0  0  0  0  0  0  0  0
   -1.6837    3.8410    3.8449 C   0  0  2  0  0  0  0  0  0  0  0  0
   -1.8224    2.9112    2.7616 O   0  0  0  0  0  0  0  0  0  0  0  0
   -0.3810    3.5448    4.5801 C   0  0  1  0  0  0  0  0  0  0  0  0
    0.7023    3.7519    3.6729 O   0  0  0  0  0  0  0  0  0  0  0  0
   -0.3070    4.4309    5.8088 C   0  0  0  0  0  0  0  0  0  0  0  0
    0.7216    5.0493    6.0796 O   0  0  0  0  0  0  0  0  0  0  0  0
   -2.3765    5.3567    8.4366 H   0  0  0  0  0  0  0  0  0  0  0  0
   -1.5108    6.4440    7.3580 H   0  0  0  0  0  0  0  0  0  0  0  0
   -0.5984    5.3340    8.4016 H   0  0  0  0  0  0  0  0  0  0  0  0
   -1.6040    3.3867    7.1497 H   0  0  0  0  0  0  0  0  0  0  0  0
   -2.9641    2.7218    5.1788 H   0  0  0  0  0  0  0  0  0  0  0  0
   -4.2446    6.8348    4.8073 H   0  0  0  0  0  0  0  0  0  0  0  0
   -5.7208    5.1873    0.1250 H   0  0  0  0  0  0  0  0  0  0  0  0
   -3.2261    2.7300   -1.4579 H   0  0  0  0  0  0  0  0  0  0  0  0
   -2.4510    1.9757   -0.0632 H   0  0  0  0  0  0  0  0  0  0  0  0
   -0.2534    2.8575   -0.7187 H   0  0  0  0  0  0  0  0  0  0  0  0
    0.7175    1.3836   -3.3933 H   0  0  0  0  0  0  0  0  0  0  0  0
   -0.0158   -0.5233   -4.2646 H   0  0  0  0  0  0  0  0  0  0  0  0
   -1.3587   -1.7290   -5.9633 H   0  0  0  0  0  0  0  0  0  0  0  0
   -3.5056    1.8287   -6.5560 H   0  0  0  0  0  0  0  0  0  0  0  0
   -0.0234    3.8930   -4.4539 H   0  0  0  0  0  0  0  0  0  0  0  0
    1.3660    4.5525   -2.5900 H   0  0  0  0  0  0  0  0  0  0  0  0
   -1.8661    4.2609   -2.8864 H   0  0  0  0  0  0  0  0  0  0  0  0
   -1.0215    5.4536   -1.1597 H   0  0  0  0  0  0  0  0  0  0  0  0
   -1.6104    4.8402    3.4046 H   0  0  0  0  0  0  0  0  0  0  0  0
   -0.9483    2.8915    2.3188 H   0  0  0  0  0  0  0  0  0  0  0  0
   -0.3328    2.4984    4.9010 H   0  0  0  0  0  0  0  0  0  0  0  0
    1.4095    4.1997    4.1836 H   0  0  0  0  0  0  0  0  0  0  0  0
  1 36  1  0  0  0  0
  1 37  1  0  0  0  0
  1 38  1  0  0  0  0
  2  3  1  0  0  0  0
  2 34  1  0  0  0  0
  2  1  1  0  0  0  0
  2 39  1  1  0  0  0
  3  4  1  0  0  0  0
  4  5  1  0  0  0  0
  4 30  1  0  0  0  0
  4 40  1  0  0  0  0
  5  6  1  0  0  0  0
  6  7  2  0  0  0  0
  6  8  1  0  0  0  0
  6  9  1  0  0  0  0
  8 41  1  0  0  0  0
  9 10  1  0  0  0  0
 10 11  2  0  0  0  0
 10 12  1  0  0  0  0
 10 13  1  0  0  0  0
 12 42  1  0  0  0  0
 13 14  1  0  0  0  0
 14 15  1  0  0  0  0
 14 43  1  0  0  0  0
 14 44  1  0  0  0  0
 15 16  1  0  0  0  0
 15 28  1  0  0  0  0
 15 45  1  1  0  0  0
 16 17  1  0  0  0  0
 17 18  1  0  0  0  0
 17 26  1  0  0  0  0
 17 46  1  1  0  0  0
 18 19  1  0  0  0  0
 18 24  1  0  0  0  0
 19 20  2  0  0  0  0
 19 47  1  0  0  0  0
 20 21  1  0  0  0  0
 20 48  1  0  0  0  0
 21 22  2  0  0  0  0
 21 23  1  0  0  0  0
 23 24  1  0  0  0  0
 23 49  1  0  0  0  0
 24 25  2  0  0  0  0
 26 27  1  0  0  0  0
 26 28  1  0  0  0  0
 26 50  1  6  0  0  0
 27 51  1  0  0  0  0
 28 29  1  0  0  0  0
 28 52  1  6  0  0  0
 29 53  1  0  0  0  0
 30 32  1  0  0  0  0
 30 31  1  0  0  0  0
 30 54  1  6  0  0  0
 31 55  1  0  0  0  0
 32 33  1  0  0  0  0
 32 34  1  0  0  0  0
 32 56  1  1  0  0  0
 33 57  1  0  0  0  0
 34 35  2  0  0  0  0
M  END
$$$$
