CHEBI:15784
 OpenBabel04242413153D

 35 35  0  0  1  0  0  0  0  0999 V2000
    8.0536    4.1879    1.4466 C   0  0  0  0  0  0  0  0  0  0  0  0
    7.0726    3.5005    0.5370 C   0  0  0  0  0  0  0  0  0  0  0  0
    5.9703    3.9687    0.2777 O   0  0  0  0  0  0  0  0  0  0  0  0
    7.5249    2.2984    0.0510 N   0  0  0  0  0  0  0  0  0  0  0  0
    6.6613    1.4097   -0.7353 C   0  0  1  0  0  0  0  0  0  0  0  0
    6.1714    2.0056   -2.0801 C   0  0  0  0  0  0  0  0  0  0  0  0
    7.2753    2.3156   -2.9213 O   0  0  0  0  0  0  0  0  0  0  0  0
    5.3161    1.0810   -2.7555 O   0  0  0  0  0  0  0  0  0  0  0  0
    5.9678   -0.1484   -3.1015 C   0  0  2  0  0  0  0  0  0  0  0  0
    4.9554   -1.0466   -3.8304 C   0  0  0  0  0  0  0  0  0  0  0  0
    4.3809   -0.4233   -4.9750 O   0  0  0  0  0  0  0  0  0  0  0  0
    5.3127   -0.0883   -6.2245 P   0  0  0  0  0  0  0  0  0  0  0  0
    6.3560    0.9611   -6.0675 O   0  0  0  0  0  0  0  0  0  0  0  0
    5.8186   -1.5046   -6.7536 O   0  0  0  0  0  0  0  0  0  0  0  0
    4.2700    0.2790   -7.3775 O   0  0  0  0  0  0  0  0  0  0  0  0
    6.5160   -0.8518   -1.8516 C   0  0  1  0  0  0  0  0  0  0  0  0
    7.2755   -2.0209   -2.1867 O   0  0  0  0  0  0  0  0  0  0  0  0
    7.4012    0.0964   -1.0331 C   0  0  2  0  0  0  0  0  0  0  0  0
    7.7828   -0.5446    0.1986 O   0  0  0  0  0  0  0  0  0  0  0  0
    7.9936    3.7485    2.4456 H   0  0  0  0  0  0  0  0  0  0  0  0
    7.8139    5.2534    1.5026 H   0  0  0  0  0  0  0  0  0  0  0  0
    9.0716    4.0851    1.0595 H   0  0  0  0  0  0  0  0  0  0  0  0
    8.2749    1.8404    0.5576 H   0  0  0  0  0  0  0  0  0  0  0  0
    5.7912    1.1881   -0.1028 H   0  0  0  0  0  0  0  0  0  0  0  0
    5.5987    2.9223   -1.9158 H   0  0  0  0  0  0  0  0  0  0  0  0
    6.9032    2.8618   -3.6364 H   0  0  0  0  0  0  0  0  0  0  0  0
    6.7923    0.0624   -3.7902 H   0  0  0  0  0  0  0  0  0  0  0  0
    5.4115   -1.9947   -4.1337 H   0  0  0  0  0  0  0  0  0  0  0  0
    4.1201   -1.2793   -3.1610 H   0  0  0  0  0  0  0  0  0  0  0  0
    5.0913   -1.9674   -7.2080 H   0  0  0  0  0  0  0  0  0  0  0  0
    4.0819    1.2363   -7.3631 H   0  0  0  0  0  0  0  0  0  0  0  0
    5.6878   -1.1900   -1.2163 H   0  0  0  0  0  0  0  0  0  0  0  0
    8.0040   -1.7517   -2.7780 H   0  0  0  0  0  0  0  0  0  0  0  0
    8.3402    0.2903   -1.5667 H   0  0  0  0  0  0  0  0  0  0  0  0
    7.9711   -1.4765   -0.0308 H   0  0  0  0  0  0  0  0  0  0  0  0
  1  2  1  0  0  0  0
  1 20  1  0  0  0  0
  1 21  1  0  0  0  0
  1 22  1  0  0  0  0
  2  3  2  0  0  0  0
  2  4  1  0  0  0  0
  4 23  1  0  0  0  0
  5  6  1  0  0  0  0
  5 18  1  0  0  0  0
  5  4  1  0  0  0  0
  5 24  1  1  0  0  0
  6  7  1  0  0  0  0
  6  8  1  0  0  0  0
  6 25  1  0  0  0  0
  7 26  1  0  0  0  0
  8  9  1  0  0  0  0
  9 16  1  0  0  0  0
  9 10  1  0  0  0  0
  9 27  1  6  0  0  0
 10 11  1  0  0  0  0
 10 28  1  0  0  0  0
 10 29  1  0  0  0  0
 11 12  1  0  0  0  0
 12 13  2  0  0  0  0
 12 14  1  0  0  0  0
 12 15  1  0  0  0  0
 14 30  1  0  0  0  0
 15 31  1  0  0  0  0
 16 17  1  0  0  0  0
 16 18  1  0  0  0  0
 16 32  1  1  0  0  0
 17 33  1  0  0  0  0
 18 19  1  0  0  0  0
 18 34  1  6  0  0  0
 19 35  1  0  0  0  0
M  END
$$$$
