CHEBI:15831
 OpenBabel04242413203D

 65 64  0  0  0  0  0  0  0  0999 V2000
   17.0017    4.4657   11.9268 C   0  0  0  0  0  0  0  0  0  0  0  0
   17.0470    5.0050   10.5198 C   0  0  0  0  0  0  0  0  0  0  0  0
   17.9361    6.2049   10.3483 C   0  0  0  0  0  0  0  0  0  0  0  0
   16.3147    4.4240    9.5495 C   0  0  0  0  0  0  0  0  0  0  0  0
   16.1879    4.8136    8.1018 C   0  0  0  0  0  0  0  0  0  0  0  0
   14.8689    5.5297    7.7622 C   0  0  0  0  0  0  0  0  0  0  0  0
   13.5997    4.6873    7.8613 C   0  0  0  0  0  0  0  0  0  0  0  0
   13.0437    4.5094    9.2469 C   0  0  0  0  0  0  0  0  0  0  0  0
   12.9924    4.2449    6.7403 C   0  0  0  0  0  0  0  0  0  0  0  0
   11.7238    3.4406    6.5558 C   0  0  0  0  0  0  0  0  0  0  0  0
   11.5332    2.2001    7.4516 C   0  0  0  0  0  0  0  0  0  0  0  0
   10.3719    1.2769    7.0656 C   0  0  0  0  0  0  0  0  0  0  0  0
   10.2279    1.0029    5.5973 C   0  0  0  0  0  0  0  0  0  0  0  0
    9.6010    0.7491    8.0418 C   0  0  0  0  0  0  0  0  0  0  0  0
    8.3726   -0.1370    8.0698 C   0  0  0  0  0  0  0  0  0  0  0  0
    7.5271   -0.4815    6.8290 C   0  0  0  0  0  0  0  0  0  0  0  0
    7.0825    0.6599    5.9347 C   0  0  0  0  0  0  0  0  0  0  0  0
    6.7717    1.9758    6.5934 C   0  0  0  0  0  0  0  0  0  0  0  0
    6.9830    0.4585    4.6023 C   0  0  0  0  0  0  0  0  0  0  0  0
    6.6697    1.4823    3.5578 C   0  0  0  0  0  0  0  0  0  0  0  0
    5.2739    1.6148    3.4360 O   0  0  0  0  0  0  0  0  0  0  0  0
    4.6227    3.0533    3.6873 P   0  0  0  0  0  0  0  0  0  0  0  0
    4.7512    3.6039    5.0692 O   0  0  0  0  0  0  0  0  0  0  0  0
    5.3710    4.0183    2.6522 O   0  0  0  0  0  0  0  0  0  0  0  0
    3.1273    2.9754    3.1832 O   0  0  0  0  0  0  0  0  0  0  0  0
    2.6124    2.9126    1.7005 P   0  0  0  0  0  0  0  0  0  0  0  0
    2.6479    4.1641    0.8915 O   0  0  0  0  0  0  0  0  0  0  0  0
    3.3042    1.6468    1.0270 O   0  0  0  0  0  0  0  0  0  0  0  0
    1.1214    2.3658    1.8961 O   0  0  0  0  0  0  0  0  0  0  0  0
   17.9879    4.0983   12.2269 H   0  0  0  0  0  0  0  0  0  0  0  0
   16.2886    3.6410   12.0325 H   0  0  0  0  0  0  0  0  0  0  0  0
   16.6944    5.2531   12.6234 H   0  0  0  0  0  0  0  0  0  0  0  0
   17.9137    6.6244    9.3405 H   0  0  0  0  0  0  0  0  0  0  0  0
   18.9739    5.9351   10.5727 H   0  0  0  0  0  0  0  0  0  0  0  0
   17.6335    7.0008   11.0373 H   0  0  0  0  0  0  0  0  0  0  0  0
   15.7329    3.5415    9.8123 H   0  0  0  0  0  0  0  0  0  0  0  0
   16.2882    3.9093    7.4887 H   0  0  0  0  0  0  0  0  0  0  0  0
   17.0180    5.4622    7.8018 H   0  0  0  0  0  0  0  0  0  0  0  0
   14.9644    5.9144    6.7373 H   0  0  0  0  0  0  0  0  0  0  0  0
   14.7570    6.4238    8.3894 H   0  0  0  0  0  0  0  0  0  0  0  0
   11.9523    4.4526    9.2459 H   0  0  0  0  0  0  0  0  0  0  0  0
   13.2991    5.3627    9.8839 H   0  0  0  0  0  0  0  0  0  0  0  0
   13.4431    3.6025    9.7101 H   0  0  0  0  0  0  0  0  0  0  0  0
   13.4619    4.5016    5.7887 H   0  0  0  0  0  0  0  0  0  0  0  0
   11.7515    3.1095    5.5097 H   0  0  0  0  0  0  0  0  0  0  0  0
   10.8581    4.1095    6.6296 H   0  0  0  0  0  0  0  0  0  0  0  0
   11.3803    2.5342    8.4826 H   0  0  0  0  0  0  0  0  0  0  0  0
   12.4527    1.6028    7.4470 H   0  0  0  0  0  0  0  0  0  0  0  0
    9.6842    1.8215    5.1124 H   0  0  0  0  0  0  0  0  0  0  0  0
    9.7257    0.0588    5.3905 H   0  0  0  0  0  0  0  0  0  0  0  0
   11.2098    0.9199    5.1208 H   0  0  0  0  0  0  0  0  0  0  0  0
    9.8810    1.0158    9.0644 H   0  0  0  0  0  0  0  0  0  0  0  0
    7.6859    0.3219    8.7965 H   0  0  0  0  0  0  0  0  0  0  0  0
    8.6741   -1.0859    8.5334 H   0  0  0  0  0  0  0  0  0  0  0  0
    6.6186   -0.9886    7.1838 H   0  0  0  0  0  0  0  0  0  0  0  0
    8.0721   -1.2338    6.2440 H   0  0  0  0  0  0  0  0  0  0  0  0
    6.8909    2.8134    5.9044 H   0  0  0  0  0  0  0  0  0  0  0  0
    7.4417    2.2055    7.4225 H   0  0  0  0  0  0  0  0  0  0  0  0
    5.7504    1.9638    6.9847 H   0  0  0  0  0  0  0  0  0  0  0  0
    7.1824   -0.5367    4.2063 H   0  0  0  0  0  0  0  0  0  0  0  0
    7.0626    1.1350    2.5950 H   0  0  0  0  0  0  0  0  0  0  0  0
    7.1655    2.4359    3.7637 H   0  0  0  0  0  0  0  0  0  0  0  0
    5.7084    4.8044    3.1247 H   0  0  0  0  0  0  0  0  0  0  0  0
    2.9905    1.5175    0.1146 H   0  0  0  0  0  0  0  0  0  0  0  0
    0.5335    3.0643    2.2366 H   0  0  0  0  0  0  0  0  0  0  0  0
  1  2  1  0  0  0  0
  1 30  1  0  0  0  0
  1 31  1  0  0  0  0
  1 32  1  0  0  0  0
  2  3  1  0  0  0  0
  2  4  2  0  0  0  0
  3 33  1  0  0  0  0
  3 34  1  0  0  0  0
  3 35  1  0  0  0  0
  4  5  1  0  0  0  0
  4 36  1  0  0  0  0
  5  6  1  0  0  0  0
  5 37  1  0  0  0  0
  5 38  1  0  0  0  0
  6  7  1  0  0  0  0
  6 39  1  0  0  0  0
  6 40  1  0  0  0  0
  7  8  1  0  0  0  0
  7  9  2  0  0  0  0
  8 41  1  0  0  0  0
  8 42  1  0  0  0  0
  8 43  1  0  0  0  0
  9 10  1  0  0  0  0
  9 44  1  0  0  0  0
 10 11  1  0  0  0  0
 10 45  1  0  0  0  0
 10 46  1  0  0  0  0
 11 12  1  0  0  0  0
 11 47  1  0  0  0  0
 11 48  1  0  0  0  0
 12 13  1  0  0  0  0
 12 14  2  0  0  0  0
 13 49  1  0  0  0  0
 13 50  1  0  0  0  0
 13 51  1  0  0  0  0
 14 15  1  0  0  0  0
 14 52  1  0  0  0  0
 15 16  1  0  0  0  0
 15 53  1  0  0  0  0
 15 54  1  0  0  0  0
 16 17  1  0  0  0  0
 16 55  1  0  0  0  0
 16 56  1  0  0  0  0
 17 18  1  0  0  0  0
 17 19  2  0  0  0  0
 18 57  1  0  0  0  0
 18 58  1  0  0  0  0
 18 59  1  0  0  0  0
 19 20  1  0  0  0  0
 19 60  1  0  0  0  0
 20 21  1  0  0  0  0
 20 61  1  0  0  0  0
 20 62  1  0  0  0  0
 21 22  1  0  0  0  0
 22 23  2  0  0  0  0
 22 24  1  0  0  0  0
 22 25  1  0  0  0  0
 24 63  1  0  0  0  0
 25 26  1  0  0  0  0
 26 27  2  0  0  0  0
 26 28  1  0  0  0  0
 26 29  1  0  0  0  0
 28 64  1  0  0  0  0
 29 65  1  0  0  0  0
M  END
$$$$
