CHEBI:17167
 OpenBabel04242415583D

 11 10  0  0  1  0  0  0  0  0999 V2000
    1.0391   -0.0927    0.0983 C   0  0  0  0  0  0  0  0  0  0  0  0
    2.5535   -0.1240   -0.0171 C   0  0  1  0  0  0  0  0  0  0  0  0
    3.1274    0.8440    0.8528 O   0  0  0  0  0  0  0  0  0  0  0  0
    3.0724   -1.5144    0.3103 C   0  0  0  0  0  0  0  0  0  0  0  0
    3.1820   -2.4143   -0.5183 O   0  0  0  0  0  0  0  0  0  0  0  0
    0.6561    0.9041   -0.1440 H   0  0  0  0  0  0  0  0  0  0  0  0
    0.7169   -0.3188    1.1211 H   0  0  0  0  0  0  0  0  0  0  0  0
    0.5736   -0.8221   -0.5723 H   0  0  0  0  0  0  0  0  0  0  0  0
    2.8621    0.1221   -1.0382 H   0  0  0  0  0  0  0  0  0  0  0  0
    2.7008    0.7742    1.7239 H   0  0  0  0  0  0  0  0  0  0  0  0
    3.2665   -1.7096    1.3790 H   0  0  0  0  0  0  0  0  0  0  0  0
  1  2  1  0  0  0  0
  1  6  1  0  0  0  0
  1  7  1  0  0  0  0
  1  8  1  0  0  0  0
  2  3  1  0  0  0  0
  2  4  1  0  0  0  0
  2  9  1  6  0  0  0
  3 10  1  0  0  0  0
  4  5  2  0  0  0  0
  4 11  1  0  0  0  0
M  END
$$$$
