CHEBI:4877
 OpenBabel04242411013D

 38 37  0  0  1  0  0  0  0  0999 V2000
    0.8172    0.6202   -1.8367 C   0  0  0  0  0  0  0  0  0  0  0  0
    2.2364    0.0678   -1.8616 C   0  0  0  0  0  0  0  0  0  0  0  0
    3.2791    1.0397   -1.2810 C   0  0  1  0  0  0  0  0  0  0  0  0
    2.9937    1.3686    0.2031 C   0  0  0  0  0  0  0  0  0  0  0  0
    4.0625    2.1546    0.7336 O   0  0  0  0  0  0  0  0  0  0  0  0
    4.6621    0.5024   -1.3458 N   0  0  0  0  0  0  0  0  0  0  0  0
    5.1876    0.4444   -2.7158 C   0  0  0  0  0  0  0  0  0  0  0  0
    6.6764    0.0358   -2.7105 C   0  0  0  0  0  0  0  0  0  0  0  0
    7.1846   -0.0862   -4.0851 N   0  0  0  0  0  0  0  0  0  0  0  0
    8.6339   -0.3945   -4.1320 C   0  0  1  0  0  0  0  0  0  0  0  0
    8.9961   -1.7718   -3.5312 C   0  0  0  0  0  0  0  0  0  0  0  0
    8.2391   -2.9677   -4.0949 C   0  0  0  0  0  0  0  0  0  0  0  0
    9.1019   -0.2715   -5.6031 C   0  0  0  0  0  0  0  0  0  0  0  0
    8.2274   -0.9748   -6.4828 O   0  0  0  0  0  0  0  0  0  0  0  0
    0.1413   -0.0612   -2.3637 H   0  0  0  0  0  0  0  0  0  0  0  0
    0.7669    1.5955   -2.3310 H   0  0  0  0  0  0  0  0  0  0  0  0
    0.4445    0.7275   -0.8141 H   0  0  0  0  0  0  0  0  0  0  0  0
    2.4779   -0.1611   -2.9054 H   0  0  0  0  0  0  0  0  0  0  0  0
    2.2596   -0.8835   -1.3157 H   0  0  0  0  0  0  0  0  0  0  0  0
    3.2577    1.9876   -1.8345 H   0  0  0  0  0  0  0  0  0  0  0  0
    2.9152    0.4568    0.8053 H   0  0  0  0  0  0  0  0  0  0  0  0
    2.0712    1.9442    0.3180 H   0  0  0  0  0  0  0  0  0  0  0  0
    4.8567    1.8268    0.2624 H   0  0  0  0  0  0  0  0  0  0  0  0
    4.6752   -0.4385   -0.9461 H   0  0  0  0  0  0  0  0  0  0  0  0
    5.0894    1.4249   -3.1971 H   0  0  0  0  0  0  0  0  0  0  0  0
    4.6256   -0.2844   -3.3100 H   0  0  0  0  0  0  0  0  0  0  0  0
    6.7704   -0.9208   -2.1855 H   0  0  0  0  0  0  0  0  0  0  0  0
    7.2553    0.7874   -2.1598 H   0  0  0  0  0  0  0  0  0  0  0  0
    7.0305    0.8072   -4.5594 H   0  0  0  0  0  0  0  0  0  0  0  0
    9.1840    0.3663   -3.5625 H   0  0  0  0  0  0  0  0  0  0  0  0
    8.8408   -1.7457   -2.4459 H   0  0  0  0  0  0  0  0  0  0  0  0
   10.0707   -1.9470   -3.6689 H   0  0  0  0  0  0  0  0  0  0  0  0
    7.1562   -2.8437   -4.0021 H   0  0  0  0  0  0  0  0  0  0  0  0
    8.5163   -3.8733   -3.5449 H   0  0  0  0  0  0  0  0  0  0  0  0
    8.4833   -3.1396   -5.1464 H   0  0  0  0  0  0  0  0  0  0  0  0
   10.1182   -0.6546   -5.7370 H   0  0  0  0  0  0  0  0  0  0  0  0
    9.0940    0.7798   -5.9116 H   0  0  0  0  0  0  0  0  0  0  0  0
    7.3653   -0.9953   -6.0188 H   0  0  0  0  0  0  0  0  0  0  0  0
  1  2  1  0  0  0  0
  1 15  1  0  0  0  0
  1 16  1  0  0  0  0
  1 17  1  0  0  0  0
  2  3  1  0  0  0  0
  2 18  1  0  0  0  0
  2 19  1  0  0  0  0
  3  4  1  0  0  0  0
  3  6  1  0  0  0  0
  3 20  1  6  0  0  0
  4  5  1  0  0  0  0
  4 21  1  0  0  0  0
  4 22  1  0  0  0  0
  5 23  1  0  0  0  0
  6  7  1  0  0  0  0
  6 24  1  0  0  0  0
  7  8  1  0  0  0  0
  7 25  1  0  0  0  0
  7 26  1  0  0  0  0
  8  9  1  0  0  0  0
  8 27  1  0  0  0  0
  8 28  1  0  0  0  0
  9 10  1  0  0  0  0
  9 29  1  0  0  0  0
 10 11  1  0  0  0  0
 10 13  1  0  0  0  0
 10 30  1  1  0  0  0
 11 12  1  0  0  0  0
 11 31  1  0  0  0  0
 11 32  1  0  0  0  0
 12 33  1  0  0  0  0
 12 34  1  0  0  0  0
 12 35  1  0  0  0  0
 13 14  1  0  0  0  0
 13 36  1  0  0  0  0
 13 37  1  0  0  0  0
 14 38  1  0  0  0  0
M  END
$$$$
