CHEBI:17778
 OpenBabel04242417163D

 14 13  0  0  0  0  0  0  0  0999 V2000
    6.6188    2.0374    0.0133 O   0  0  0  0  0  0  0  0  0  0  0  0
    6.0021    0.9990    0.1456 C   0  0  0  0  0  0  0  0  0  0  0  0
    5.7796    0.4110    1.3224 O   0  0  0  0  0  0  0  0  0  0  0  0
    5.4040    0.2356   -1.0321 C   0  0  0  0  0  0  0  0  0  0  0  0
    5.3869   -0.9905   -1.0708 O   0  0  0  0  0  0  0  0  0  0  0  0
    4.8542    1.0972   -2.1415 C   0  0  0  0  0  0  0  0  0  0  0  0
    4.4787    0.3095   -3.2897 O   0  0  0  0  0  0  0  0  0  0  0  0
    3.6290    1.8669   -1.6853 C   0  0  0  0  0  0  0  0  0  0  0  0
    3.4592    2.3194   -0.5646 O   0  0  0  0  0  0  0  0  0  0  0  0
    2.7231    2.0120   -2.6875 O   0  0  0  0  0  0  0  0  0  0  0  0
    6.1806    1.0004    1.9937 H   0  0  0  0  0  0  0  0  0  0  0  0
    5.6167    1.8053   -2.4779 H   0  0  0  0  0  0  0  0  0  0  0  0
    4.3644   -0.6100   -2.9615 H   0  0  0  0  0  0  0  0  0  0  0  0
    3.0429    1.5197   -3.4815 H   0  0  0  0  0  0  0  0  0  0  0  0
  1  2  2  0  0  0  0
  2  3  1  0  0  0  0
  2  4  1  0  0  0  0
  3 11  1  0  0  0  0
  4  5  2  0  0  0  0
  4  6  1  0  0  0  0
  6  7  1  0  0  0  0
  6  8  1  0  0  0  0
  6 12  1  0  0  0  0
  7 13  1  0  0  0  0
  8  9  2  0  0  0  0
  8 10  1  0  0  0  0
 10 14  1  0  0  0  0
M  END
$$$$
