CHEBI:18361
 OpenBabel04252409273D

  9  8  0  0  0  0  0  0  0  0999 V2000
    1.0969    0.0150   -0.0194 O   0  0  0  0  0  0  0  0  0  0  0  0
    2.6453    0.0150   -0.0194 P   0  0  0  0  0  0  0  0  0  0  0  0
    2.6961    1.3065    0.8715 O   0  5  0  0  0  0  0  0  0  0  0  0
    2.6960   -1.3376    0.7756 O   0  5  0  0  0  0  0  0  0  0  0  0
    4.3753    0.0150   -0.0194 O   0  0  0  0  0  0  0  0  0  0  0  0
    5.3501    0.0615   -1.3574 P   0  0  0  0  0  0  0  0  0  0  0  0
    6.7973    0.0553   -0.8176 O   0  0  0  0  0  0  0  0  0  0  0  0
    5.0867   -1.1867   -2.2107 O   0  5  0  0  0  0  0  0  0  0  0  0
    5.0689    1.3541   -2.1355 O   0  5  0  0  0  0  0  0  0  0  0  0
  1  2  2  0  0  0  0
  2  3  1  0  0  0  0
  2  4  1  0  0  0  0
  2  5  1  0  0  0  0
  5  6  1  0  0  0  0
  6  7  2  0  0  0  0
  6  8  1  0  0  0  0
  6  9  1  0  0  0  0
M  CHG  4   3  -1   4  -1   8  -1   9  -1
M  END
$$$$
