CHEBI:18193
 OpenBabel04242423423D

 75 79  0  0  1  0  0  0  0  0999 V2000
    6.4564    0.6809   -6.6335 C   0  0  0  0  0  0  0  0  0  0  0  0
    6.3700    0.8536   -5.1463 C   0  0  0  0  0  0  0  0  0  0  0  0
    5.3288    0.8073   -4.5124 O   0  0  0  0  0  0  0  0  0  0  0  0
    7.6160    1.0006   -4.6292 O   0  0  0  0  0  0  0  0  0  0  0  0
    7.8135    0.9986   -3.1825 C   0  0  1  0  0  0  0  0  0  0  0  0
    6.8622    1.9661   -2.3626 C   0  0  0  0  0  0  0  0  0  0  0  0
    7.7962    3.0747   -2.6762 O   0  0  0  0  0  0  0  0  0  0  0  0
    8.8310    2.0605   -2.6712 C   0  0  2  0  0  0  0  0  0  0  0  0
    9.9669    2.2076   -3.6356 C   0  0  0  0  0  0  0  0  0  0  0  0
   10.7587    0.9013   -3.4847 C   0  0  2  0  0  0  0  0  0  0  0  0
   11.8157    0.8933   -4.4487 O   0  0  0  0  0  0  0  0  0  0  0  0
    9.9047   -0.4647   -3.5819 C   0  0  1  0  0  0  0  0  0  0  0  0
    9.6967   -0.7422   -5.0850 C   0  0  0  0  0  0  0  0  0  0  0  0
   10.8910   -1.4815   -2.9245 C   0  0  0  0  0  0  0  0  0  0  0  0
   11.5894   -1.1453   -1.9544 O   0  0  0  0  0  0  0  0  0  0  0  0
   10.9977   -2.9438   -3.4037 C   0  0  2  0  0  0  0  0  0  0  0  0
   11.6949   -3.0328   -4.6267 O   0  0  0  0  0  0  0  0  0  0  0  0
    9.6066   -3.5314   -3.4178 C   0  0  0  0  0  0  0  0  0  0  0  0
    8.9149   -3.9606   -4.5138 C   0  0  0  0  0  0  0  0  0  0  0  0
    9.5189   -4.1951   -5.8816 C   0  0  0  0  0  0  0  0  0  0  0  0
    7.4149   -4.2187   -4.4896 C   0  0  1  0  0  0  0  0  0  0  0  0
    6.8415   -3.3300   -5.4530 O   0  0  0  0  0  0  0  0  0  0  0  0
    6.7208   -3.9920   -3.1434 C   0  0  0  0  0  0  0  0  0  0  0  0
    7.4908   -2.9993   -2.2278 C   0  0  1  0  0  0  0  0  0  0  0  0
    6.8515   -3.0717   -0.9292 O   0  0  0  0  0  0  0  0  0  0  0  0
    7.3564   -1.4880   -2.8069 C   0  0  1  0  0  0  0  0  0  0  0  0
    6.2519   -0.8752   -2.0265 O   0  0  0  0  0  0  0  0  0  0  0  0
    4.9597   -1.0654   -2.3898 C   0  0  0  0  0  0  0  0  0  0  0  0
    4.5680   -1.7516   -3.3186 O   0  0  0  0  0  0  0  0  0  0  0  0
    4.0574   -0.3552   -1.4429 C   0  0  0  0  0  0  0  0  0  0  0  0
    4.5015    0.1228   -0.2009 C   0  0  0  0  0  0  0  0  0  0  0  0
    3.6158    0.7800    0.6563 C   0  0  0  0  0  0  0  0  0  0  0  0
    2.2830    0.9513    0.2848 C   0  0  0  0  0  0  0  0  0  0  0  0
    1.8315    0.4654   -0.9420 C   0  0  0  0  0  0  0  0  0  0  0  0
    2.7152   -0.1872   -1.8044 C   0  0  0  0  0  0  0  0  0  0  0  0
    8.4915   -0.3658   -2.7423 C   0  0  2  0  0  0  0  0  0  0  0  0
    8.9220   -3.5948   -2.0384 C   0  0  0  0  0  0  0  0  0  0  0  0
    9.5901   -2.9628   -0.7814 C   0  0  0  0  0  0  0  0  0  0  0  0
    8.9264   -5.1160   -1.6455 C   0  0  0  0  0  0  0  0  0  0  0  0
    6.6158   -0.3743   -6.8689 H   0  0  0  0  0  0  0  0  0  0  0  0
    7.2761    1.2804   -7.0401 H   0  0  0  0  0  0  0  0  0  0  0  0
    5.5281    1.0288   -7.0940 H   0  0  0  0  0  0  0  0  0  0  0  0
    6.7985    1.7949   -1.2823 H   0  0  0  0  0  0  0  0  0  0  0  0
    5.8701    2.1942   -2.7507 H   0  0  0  0  0  0  0  0  0  0  0  0
    9.1973    1.9351   -1.6394 H   0  0  0  0  0  0  0  0  0  0  0  0
   10.6025    3.0614   -3.3726 H   0  0  0  0  0  0  0  0  0  0  0  0
    9.6539    2.3759   -4.6711 H   0  0  0  0  0  0  0  0  0  0  0  0
   11.2383    0.9689   -2.5004 H   0  0  0  0  0  0  0  0  0  0  0  0
   12.3786    1.6685   -4.2723 H   0  0  0  0  0  0  0  0  0  0  0  0
   10.5731   -1.1935   -5.5543 H   0  0  0  0  0  0  0  0  0  0  0  0
    9.5257    0.1743   -5.6581 H   0  0  0  0  0  0  0  0  0  0  0  0
    8.8380   -1.3862   -5.2685 H   0  0  0  0  0  0  0  0  0  0  0  0
   11.5996   -3.5047   -2.6797 H   0  0  0  0  0  0  0  0  0  0  0  0
   12.5721   -2.6361   -4.4795 H   0  0  0  0  0  0  0  0  0  0  0  0
   10.5124   -4.6463   -5.8194 H   0  0  0  0  0  0  0  0  0  0  0  0
    9.5624   -3.2730   -6.4661 H   0  0  0  0  0  0  0  0  0  0  0  0
    8.9174   -4.9144   -6.4500 H   0  0  0  0  0  0  0  0  0  0  0  0
    7.2076   -5.2402   -4.8289 H   0  0  0  0  0  0  0  0  0  0  0  0
    5.8715   -3.3956   -5.3833 H   0  0  0  0  0  0  0  0  0  0  0  0
    6.6099   -4.9541   -2.6268 H   0  0  0  0  0  0  0  0  0  0  0  0
    5.6839   -3.6874   -3.2825 H   0  0  0  0  0  0  0  0  0  0  0  0
    5.8980   -2.9360   -1.0614 H   0  0  0  0  0  0  0  0  0  0  0  0
    7.0302   -1.5312   -3.8474 H   0  0  0  0  0  0  0  0  0  0  0  0
    5.5326   -0.0118    0.1163 H   0  0  0  0  0  0  0  0  0  0  0  0
    3.9647    1.1573    1.6148 H   0  0  0  0  0  0  0  0  0  0  0  0
    1.5944    1.4637    0.9527 H   0  0  0  0  0  0  0  0  0  0  0  0
    0.7913    0.5979   -1.2296 H   0  0  0  0  0  0  0  0  0  0  0  0
    2.3561   -0.5563   -2.7632 H   0  0  0  0  0  0  0  0  0  0  0  0
    8.7467   -0.2590   -1.6815 H   0  0  0  0  0  0  0  0  0  0  0  0
   10.6396   -3.2579   -0.6787 H   0  0  0  0  0  0  0  0  0  0  0  0
    9.0979   -3.3031    0.1394 H   0  0  0  0  0  0  0  0  0  0  0  0
    9.5292   -1.8784   -0.7495 H   0  0  0  0  0  0  0  0  0  0  0  0
    8.6050   -5.7843   -2.4513 H   0  0  0  0  0  0  0  0  0  0  0  0
    8.2797   -5.3088   -0.7816 H   0  0  0  0  0  0  0  0  0  0  0  0
    9.9398   -5.4427   -1.3773 H   0  0  0  0  0  0  0  0  0  0  0  0
  1  2  1  0  0  0  0
  1 40  1  0  0  0  0
  1 41  1  0  0  0  0
  1 42  1  0  0  0  0
  2  3  2  0  0  0  0
  2  4  1  0  0  0  0
  5  4  1  1  0  0  0
  5  6  1  0  0  0  0
  5  8  1  0  0  0  0
  5 36  1  0  0  0  0
  6  7  1  0  0  0  0
  6 43  1  0  0  0  0
  6 44  1  0  0  0  0
  7  8  1  0  0  0  0
  8  9  1  0  0  0  0
  8 45  1  1  0  0  0
  9 10  1  0  0  0  0
  9 46  1  0  0  0  0
  9 47  1  0  0  0  0
 10 11  1  0  0  0  0
 10 12  1  0  0  0  0
 10 48  1  1  0  0  0
 11 49  1  0  0  0  0
 12 13  1  6  0  0  0
 12 14  1  0  0  0  0
 12 36  1  0  0  0  0
 13 50  1  0  0  0  0
 13 51  1  0  0  0  0
 13 52  1  0  0  0  0
 14 15  2  0  0  0  0
 14 16  1  0  0  0  0
 16 17  1  0  0  0  0
 16 18  1  0  0  0  0
 16 53  1  1  0  0  0
 17 54  1  0  0  0  0
 18 19  2  0  0  0  0
 18 37  1  0  0  0  0
 19 20  1  0  0  0  0
 19 21  1  0  0  0  0
 20 55  1  0  0  0  0
 20 56  1  0  0  0  0
 20 57  1  0  0  0  0
 21 23  1  0  0  0  0
 21 22  1  0  0  0  0
 21 58  1  1  0  0  0
 22 59  1  0  0  0  0
 23 24  1  0  0  0  0
 23 60  1  0  0  0  0
 23 61  1  0  0  0  0
 24 25  1  6  0  0  0
 24 26  1  0  0  0  0
 24 37  1  0  0  0  0
 25 62  1  0  0  0  0
 26 36  1  0  0  0  0
 26 27  1  0  0  0  0
 26 63  1  6  0  0  0
 27 28  1  0  0  0  0
 28 29  2  0  0  0  0
 28 30  1  0  0  0  0
 30 31  1  0  0  0  0
 30 35  2  0  0  0  0
 31 32  2  0  0  0  0
 31 64  1  0  0  0  0
 32 33  1  0  0  0  0
 32 65  1  0  0  0  0
 33 34  2  0  0  0  0
 33 66  1  0  0  0  0
 34 35  1  0  0  0  0
 34 67  1  0  0  0  0
 35 68  1  0  0  0  0
 36 69  1  1  0  0  0
 37 38  1  0  0  0  0
 37 39  1  0  0  0  0
 38 70  1  0  0  0  0
 38 71  1  0  0  0  0
 38 72  1  0  0  0  0
 39 73  1  0  0  0  0
 39 74  1  0  0  0  0
 39 75  1  0  0  0  0
M  END
$$$$
