CHEBI:15437
 OpenBabel04242411533D

104108  0  0  0  0  0  0  0  0999 V2000
    4.2721   -0.5998   -0.1611 O   0  0  0  0  0  0  0  0  0  0  0  0
    4.3097   -1.1573   -1.2425 C   0  0  0  0  0  0  0  0  0  0  0  0
    4.3342   -2.5020   -1.3250 O   0  0  0  0  0  0  0  0  0  0  0  0
    4.3623   -0.4933   -2.5844 C   0  0  0  0  0  0  0  0  0  0  0  0
    5.8103   -0.2900   -3.0033 C   0  0  0  0  0  0  0  0  0  0  0  0
    5.9263    0.3728   -4.3465 C   0  0  0  0  0  0  0  0  0  0  0  0
    5.9474   -0.2693   -5.5772 C   0  0  0  0  0  0  0  0  0  0  0  0
    6.0499    0.6920   -6.5506 N   0  0  0  0  0  0  0  0  0  0  0  0
    6.1491    1.9341   -5.9786 C   0  0  0  0  0  0  0  0  0  0  0  0
    6.0083    1.7831   -4.6064 C   0  0  0  0  0  0  0  0  0  0  0  0
    5.9450    2.8988   -3.5996 C   0  0  0  0  0  0  0  0  0  0  0  0
    4.5404    3.3982   -3.3442 C   0  0  0  0  0  0  0  0  0  0  0  0
    4.1065    3.7795   -2.2666 O   0  0  0  0  0  0  0  0  0  0  0  0
    3.7573    3.4995   -4.4386 O   0  0  0  0  0  0  0  0  0  0  0  0
    6.2885    3.1720   -6.8095 C   0  0  0  0  0  0  0  0  0  0  0  0
    7.7087    3.5620   -7.1137 C   0  0  0  0  0  0  0  0  0  0  0  0
    8.7040    2.6263   -7.2266 N   0  0  0  0  0  0  0  0  0  0  0  0
    9.8750    3.2086   -7.6347 C   0  0  0  0  0  0  0  0  0  0  0  0
    9.6604    4.5803   -7.6985 C   0  0  0  0  0  0  0  0  0  0  0  0
   10.7009    5.6050   -8.0384 C   0  0  0  0  0  0  0  0  0  0  0  0
   10.9577    5.7057   -9.5262 C   0  0  0  0  0  0  0  0  0  0  0  0
   11.6752    4.9373  -10.1536 O   0  0  0  0  0  0  0  0  0  0  0  0
   10.3276    6.7397  -10.1307 O   0  0  0  0  0  0  0  0  0  0  0  0
    8.2841    4.8093   -7.3314 C   0  0  0  0  0  0  0  0  0  0  0  0
    7.5989    6.1423   -7.1850 C   0  0  0  0  0  0  0  0  0  0  0  0
    6.3873    6.3521   -8.0849 C   0  0  0  0  0  0  0  0  0  0  0  0
    6.7050    6.1771   -9.5383 C   0  0  0  0  0  0  0  0  0  0  0  0
    6.0731    5.5052  -10.3359 O   0  0  0  0  0  0  0  0  0  0  0  0
    7.7566    6.9173   -9.9452 O   0  0  0  0  0  0  0  0  0  0  0  0
   11.1049    2.3945   -7.9218 C   0  0  0  0  0  0  0  0  0  0  0  0
   11.2444    1.1784   -7.0469 C   0  0  0  0  0  0  0  0  0  0  0  0
   10.8891   -0.0426   -7.5700 N   0  0  0  0  0  0  0  0  0  0  0  0
   11.0363   -1.0279   -6.6342 C   0  0  0  0  0  0  0  0  0  0  0  0
   11.5986   -0.4571   -5.5051 C   0  0  0  0  0  0  0  0  0  0  0  0
   12.0392   -1.2055   -4.2778 C   0  0  0  0  0  0  0  0  0  0  0  0
   10.9239   -1.4582   -3.2856 C   0  0  0  0  0  0  0  0  0  0  0  0
   10.2235   -0.5796   -2.7997 O   0  0  0  0  0  0  0  0  0  0  0  0
   10.8121   -2.7501   -2.8944 O   0  0  0  0  0  0  0  0  0  0  0  0
   11.6860    0.9678   -5.7418 C   0  0  0  0  0  0  0  0  0  0  0  0
   12.1815    1.9422   -4.6968 C   0  0  0  0  0  0  0  0  0  0  0  0
   12.1452    3.4187   -5.0475 C   0  0  0  0  0  0  0  0  0  0  0  0
   12.6293    4.2929   -3.9215 C   0  0  0  0  0  0  0  0  0  0  0  0
   11.9424    5.1435   -3.3761 O   0  0  0  0  0  0  0  0  0  0  0  0
   13.9328    4.1166   -3.6113 O   0  0  0  0  0  0  0  0  0  0  0  0
   10.6227   -2.4375   -6.9209 C   0  0  0  0  0  0  0  0  0  0  0  0
    9.3170   -2.8167   -6.2767 C   0  0  0  0  0  0  0  0  0  0  0  0
    8.3275   -1.8776   -6.1022 N   0  0  0  0  0  0  0  0  0  0  0  0
    7.1238   -2.4833   -5.8586 C   0  0  0  0  0  0  0  0  0  0  0  0
    7.3871   -3.8254   -5.6191 C   0  0  0  0  0  0  0  0  0  0  0  0
    6.3631   -4.9009   -5.3646 C   0  0  0  0  0  0  0  0  0  0  0  0
    5.6077   -4.7717   -4.0477 C   0  0  0  0  0  0  0  0  0  0  0  0
    4.6225   -5.8945   -3.8856 C   0  0  0  0  0  0  0  0  0  0  0  0
    4.4835   -6.5935   -2.8957 O   0  0  0  0  0  0  0  0  0  0  0  0
    3.8093   -6.0539   -4.9481 O   0  0  0  0  0  0  0  0  0  0  0  0
    8.8127   -4.0234   -5.7981 C   0  0  0  0  0  0  0  0  0  0  0  0
    9.5073   -5.3499   -5.6386 C   0  0  0  0  0  0  0  0  0  0  0  0
   10.9957   -5.2823   -5.4029 C   0  0  0  0  0  0  0  0  0  0  0  0
   11.5852   -4.6201   -4.5575 O   0  0  0  0  0  0  0  0  0  0  0  0
   11.6877   -6.0701   -6.2545 O   0  0  0  0  0  0  0  0  0  0  0  0
    5.8317   -1.7218   -5.9322 C   0  0  0  0  0  0  0  0  0  0  0  0
    4.3293   -2.7943   -0.3884 H   0  0  0  0  0  0  0  0  0  0  0  0
    3.8237    0.4590   -2.5152 H   0  0  0  0  0  0  0  0  0  0  0  0
    3.8098   -1.1041   -3.3081 H   0  0  0  0  0  0  0  0  0  0  0  0
    6.3321   -1.2553   -3.0259 H   0  0  0  0  0  0  0  0  0  0  0  0
    6.3369    0.3054   -2.2477 H   0  0  0  0  0  0  0  0  0  0  0  0
    6.0491    0.5120   -7.5466 H   0  0  0  0  0  0  0  0  0  0  0  0
    6.5501    3.7513   -3.9269 H   0  0  0  0  0  0  0  0  0  0  0  0
    6.3574    2.5592   -2.6438 H   0  0  0  0  0  0  0  0  0  0  0  0
    2.9072    3.8338   -4.0857 H   0  0  0  0  0  0  0  0  0  0  0  0
    5.7902    3.9982   -6.2910 H   0  0  0  0  0  0  0  0  0  0  0  0
    5.7569    3.0368   -7.7602 H   0  0  0  0  0  0  0  0  0  0  0  0
    8.5979    1.6453   -7.0057 H   0  0  0  0  0  0  0  0  0  0  0  0
   11.6569    5.3496   -7.5652 H   0  0  0  0  0  0  0  0  0  0  0  0
   10.4513    6.5918   -7.6374 H   0  0  0  0  0  0  0  0  0  0  0  0
    9.6562    7.1753   -9.5603 H   0  0  0  0  0  0  0  0  0  0  0  0
    8.3151    6.9520   -7.3608 H   0  0  0  0  0  0  0  0  0  0  0  0
    7.2844    6.2491   -6.1388 H   0  0  0  0  0  0  0  0  0  0  0  0
    5.9837    7.3611   -7.9444 H   0  0  0  0  0  0  0  0  0  0  0  0
    5.5835    5.6548   -7.8309 H   0  0  0  0  0  0  0  0  0  0  0  0
    7.8268    6.6839  -10.9016 H   0  0  0  0  0  0  0  0  0  0  0  0
   12.0083    3.0053   -7.8408 H   0  0  0  0  0  0  0  0  0  0  0  0
   11.0604    2.0861   -8.9754 H   0  0  0  0  0  0  0  0  0  0  0  0
   10.5394   -0.1839   -8.5099 H   0  0  0  0  0  0  0  0  0  0  0  0
   12.8269   -0.6580   -3.7479 H   0  0  0  0  0  0  0  0  0  0  0  0
   12.5004   -2.1498   -4.5858 H   0  0  0  0  0  0  0  0  0  0  0  0
   11.3196   -3.3946   -3.4440 H   0  0  0  0  0  0  0  0  0  0  0  0
   13.2116    1.6562   -4.4483 H   0  0  0  0  0  0  0  0  0  0  0  0
   11.5966    1.7871   -3.7805 H   0  0  0  0  0  0  0  0  0  0  0  0
   11.1171    3.7249   -5.2601 H   0  0  0  0  0  0  0  0  0  0  0  0
   12.7577    3.6491   -5.9238 H   0  0  0  0  0  0  0  0  0  0  0  0
   14.3943    3.4594   -4.1641 H   0  0  0  0  0  0  0  0  0  0  0  0
   11.4329   -3.1023   -6.6176 H   0  0  0  0  0  0  0  0  0  0  0  0
   10.5125   -2.5778   -8.0046 H   0  0  0  0  0  0  0  0  0  0  0  0
    8.4497   -0.8814   -6.2313 H   0  0  0  0  0  0  0  0  0  0  0  0
    6.8410   -5.8876   -5.3998 H   0  0  0  0  0  0  0  0  0  0  0  0
    5.6612   -4.8921   -6.2088 H   0  0  0  0  0  0  0  0  0  0  0  0
    5.0500   -3.8351   -3.9714 H   0  0  0  0  0  0  0  0  0  0  0  0
    6.3072   -4.8022   -3.2050 H   0  0  0  0  0  0  0  0  0  0  0  0
    3.2052   -6.7793   -4.6826 H   0  0  0  0  0  0  0  0  0  0  0  0
    9.3044   -5.9602   -6.5260 H   0  0  0  0  0  0  0  0  0  0  0  0
    9.0947   -5.8857   -4.7749 H   0  0  0  0  0  0  0  0  0  0  0  0
   12.6316   -5.9539   -6.0204 H   0  0  0  0  0  0  0  0  0  0  0  0
    5.0816   -2.1748   -5.2790 H   0  0  0  0  0  0  0  0  0  0  0  0
    5.4372   -1.8203   -6.9520 H   0  0  0  0  0  0  0  0  0  0  0  0
  1  2  2  0  0  0  0
  2  3  1  0  0  0  0
  2  4  1  0  0  0  0
  3 61  1  0  0  0  0
  4  5  1  0  0  0  0
  4 62  1  0  0  0  0
  4 63  1  0  0  0  0
  5  6  1  0  0  0  0
  5 64  1  0  0  0  0
  5 65  1  0  0  0  0
  6  7  2  0  0  0  0
  6 10  1  0  0  0  0
  7  8  1  0  0  0  0
  7 60  1  0  0  0  0
  8  9  1  0  0  0  0
  8 66  1  0  0  0  0
  9 10  2  0  0  0  0
  9 15  1  0  0  0  0
 10 11  1  0  0  0  0
 11 12  1  0  0  0  0
 11 67  1  0  0  0  0
 11 68  1  0  0  0  0
 12 13  2  0  0  0  0
 12 14  1  0  0  0  0
 14 69  1  0  0  0  0
 15 16  1  0  0  0  0
 15 70  1  0  0  0  0
 15 71  1  0  0  0  0
 16 17  1  0  0  0  0
 16 24  2  0  0  0  0
 17 18  1  0  0  0  0
 17 72  1  0  0  0  0
 18 19  2  0  0  0  0
 18 30  1  0  0  0  0
 19 20  1  0  0  0  0
 19 24  1  0  0  0  0
 20 21  1  0  0  0  0
 20 73  1  0  0  0  0
 20 74  1  0  0  0  0
 21 22  2  0  0  0  0
 21 23  1  0  0  0  0
 23 75  1  0  0  0  0
 24 25  1  0  0  0  0
 25 26  1  0  0  0  0
 25 76  1  0  0  0  0
 25 77  1  0  0  0  0
 26 27  1  0  0  0  0
 26 78  1  0  0  0  0
 26 79  1  0  0  0  0
 27 28  2  0  0  0  0
 27 29  1  0  0  0  0
 29 80  1  0  0  0  0
 30 31  1  0  0  0  0
 30 81  1  0  0  0  0
 30 82  1  0  0  0  0
 31 32  1  0  0  0  0
 31 39  2  0  0  0  0
 32 33  1  0  0  0  0
 32 83  1  0  0  0  0
 33 34  2  0  0  0  0
 33 45  1  0  0  0  0
 34 35  1  0  0  0  0
 34 39  1  0  0  0  0
 35 36  1  0  0  0  0
 35 84  1  0  0  0  0
 35 85  1  0  0  0  0
 36 37  2  0  0  0  0
 36 38  1  0  0  0  0
 38 86  1  0  0  0  0
 39 40  1  0  0  0  0
 40 41  1  0  0  0  0
 40 87  1  0  0  0  0
 40 88  1  0  0  0  0
 41 42  1  0  0  0  0
 41 89  1  0  0  0  0
 41 90  1  0  0  0  0
 42 43  2  0  0  0  0
 42 44  1  0  0  0  0
 44 91  1  0  0  0  0
 45 46  1  0  0  0  0
 45 92  1  0  0  0  0
 45 93  1  0  0  0  0
 46 47  1  0  0  0  0
 46 55  2  0  0  0  0
 47 48  1  0  0  0  0
 47 94  1  0  0  0  0
 48 49  2  0  0  0  0
 48 60  1  0  0  0  0
 49 50  1  0  0  0  0
 49 55  1  0  0  0  0
 50 51  1  0  0  0  0
 50 95  1  0  0  0  0
 50 96  1  0  0  0  0
 51 52  1  0  0  0  0
 51 97  1  0  0  0  0
 51 98  1  0  0  0  0
 52 53  2  0  0  0  0
 52 54  1  0  0  0  0
 54 99  1  0  0  0  0
 55 56  1  0  0  0  0
 56 57  1  0  0  0  0
 56100  1  0  0  0  0
 56101  1  0  0  0  0
 57 58  2  0  0  0  0
 57 59  1  0  0  0  0
 59102  1  0  0  0  0
 60103  1  0  0  0  0
 60104  1  0  0  0  0
M  END
$$$$
