CHEBI:17977
 OpenBabel04242423213D

 13 13  0  0  0  0  0  0  0  0999 V2000
    1.1735    0.1000    0.1792 O   0  0  0  0  0  1  0  0  0  0  0  0
    2.4371    0.1072    0.0135 C   0  0  0  0  0  0  0  0  0  0  0  0
    3.1804    1.2978   -0.0950 C   0  0  0  0  0  0  0  0  0  0  0  0
    4.5702    1.3226   -0.2777 C   0  0  0  0  0  0  0  0  0  0  0  0
    5.2666    0.1263   -0.3581 C   0  0  0  0  0  0  0  0  0  0  0  0
    6.6203    0.1028   -0.5363 O   0  0  0  0  0  0  0  0  0  0  0  0
    4.5918   -1.0766   -0.2580 C   0  0  0  0  0  0  0  0  0  0  0  0
    3.2013   -1.0730   -0.0756 C   0  0  0  0  0  0  0  0  0  0  0  0
    2.6427    2.2433   -0.0331 H   0  0  0  0  0  0  0  0  0  0  0  0
    5.0670    2.2815   -0.3516 H   0  0  0  0  0  0  0  0  0  0  0  0
    6.9098    1.0269   -0.5864 H   0  0  0  0  0  0  0  0  0  0  0  0
    5.1247   -2.0175   -0.3192 H   0  0  0  0  0  0  0  0  0  0  0  0
    2.6825   -2.0276    0.0014 H   0  0  0  0  0  0  0  0  0  0  0  0
  1  2  1  0  0  0  0
  2  3  1  0  0  0  0
  2  8  2  0  0  0  0
  3  4  2  0  0  0  0
  3  9  1  0  0  0  0
  4  5  1  0  0  0  0
  4 10  1  0  0  0  0
  5  6  1  0  0  0  0
  5  7  2  0  0  0  0
  6 11  1  0  0  0  0
  7  8  1  0  0  0  0
  7 12  1  0  0  0  0
  8 13  1  0  0  0  0
M  END
$$$$
