CHEBI:16513
 OpenBabel04242414403D

 12 11  0  0  0  0  0  0  0  0999 V2000
    0.7500   -0.3005    0.2224 O   0  0  0  0  0  0  0  0  0  0  0  0
    1.8854    0.1655    0.2520 C   0  0  0  0  0  0  0  0  0  0  0  0
    2.1173    1.4840    0.4200 O   0  0  0  0  0  0  0  0  0  0  0  0
    3.1062   -0.7392    0.1547 C   0  0  0  0  0  0  0  0  0  0  0  0
    2.7916   -2.0117   -0.4362 O   0  0  0  0  0  0  0  0  0  0  0  0
    4.2297   -0.1119   -0.6379 C   0  0  0  0  0  0  0  0  0  0  0  0
    4.5664    1.0593   -0.5130 O   0  0  0  0  0  0  0  0  0  0  0  0
    4.8383   -0.9874   -1.4721 O   0  0  0  0  0  0  0  0  0  0  0  0
    3.0596    1.7639    0.3134 H   0  0  0  0  0  0  0  0  0  0  0  0
    3.4694   -0.9353    1.1683 H   0  0  0  0  0  0  0  0  0  0  0  0
    1.8123   -2.0885   -0.3833 H   0  0  0  0  0  0  0  0  0  0  0  0
    4.3579   -1.8506   -1.4193 H   0  0  0  0  0  0  0  0  0  0  0  0
  1  2  2  0  0  0  0
  2  3  1  0  0  0  0
  2  4  1  0  0  0  0
  3  9  1  0  0  0  0
  4  5  1  0  0  0  0
  4  6  1  0  0  0  0
  4 10  1  0  0  0  0
  5 11  1  0  0  0  0
  6  7  2  0  0  0  0
  6  8  1  0  0  0  0
  8 12  1  0  0  0  0
M  END
$$$$
