CHEBI:16114
 OpenBabel04242413503D

 34 37  0  0  0  0  0  0  0  0999 V2000
    2.3643    0.6332    0.6860 C   0  0  0  0  0  0  0  0  0  0  0  0
    2.5099    0.2719   -0.6823 O   0  0  0  0  0  0  0  0  0  0  0  0
    3.3519   -0.7727   -0.9562 C   0  0  0  0  0  0  0  0  0  0  0  0
    3.4843   -1.0719   -2.3254 C   0  0  0  0  0  0  0  0  0  0  0  0
    4.3037   -2.1168   -2.7657 C   0  0  0  0  0  0  0  0  0  0  0  0
    4.9856   -2.8508   -1.8132 C   0  0  0  0  0  0  0  0  0  0  0  0
    4.8537   -2.5537   -0.4676 C   0  0  0  0  0  0  0  0  0  0  0  0
    4.0467   -1.5285   -0.0109 C   0  0  0  0  0  0  0  0  0  0  0  0
    5.5579   -3.3878    0.3590 O   0  0  0  0  0  0  0  0  0  0  0  0
    6.3995   -4.1680   -0.5343 C   0  0  0  0  0  0  0  0  0  0  0  0
    6.4765   -5.5915   -0.0469 C   0  0  0  0  0  0  0  0  0  0  0  0
    6.8115   -5.8777    1.2858 C   0  0  0  0  0  0  0  0  0  0  0  0
    6.9257   -7.2001    1.7204 C   0  0  0  0  0  0  0  0  0  0  0  0
    6.7240   -8.2374    0.8151 C   0  0  0  0  0  0  0  0  0  0  0  0
    6.8277   -9.5421    1.1985 O   0  0  0  0  0  0  0  0  0  0  0  0
    6.4032   -7.9742   -0.5109 C   0  0  0  0  0  0  0  0  0  0  0  0
    6.2584   -6.6540   -0.9310 C   0  0  0  0  0  0  0  0  0  0  0  0
    5.9160   -6.4543   -2.2430 O   0  0  0  0  0  0  0  0  0  0  0  0
    5.1100   -5.2828   -2.4000 C   0  0  0  0  0  0  0  0  0  0  0  0
    5.8663   -4.0345   -1.9734 C   0  0  0  0  0  0  0  0  0  0  0  0
    1.6711    1.4783    0.7368 H   0  0  0  0  0  0  0  0  0  0  0  0
    3.3193    0.9595    1.1112 H   0  0  0  0  0  0  0  0  0  0  0  0
    1.9314   -0.1871    1.2681 H   0  0  0  0  0  0  0  0  0  0  0  0
    2.9311   -0.4818   -3.0534 H   0  0  0  0  0  0  0  0  0  0  0  0
    4.3847   -2.3429   -3.8238 H   0  0  0  0  0  0  0  0  0  0  0  0
    3.9770   -1.3514    1.0541 H   0  0  0  0  0  0  0  0  0  0  0  0
    7.4073   -3.7313   -0.4799 H   0  0  0  0  0  0  0  0  0  0  0  0
    6.9796   -5.0660    1.9912 H   0  0  0  0  0  0  0  0  0  0  0  0
    7.1753   -7.3977    2.7581 H   0  0  0  0  0  0  0  0  0  0  0  0
    7.0148   -9.5720    2.1509 H   0  0  0  0  0  0  0  0  0  0  0  0
    6.2455   -8.7917   -1.2075 H   0  0  0  0  0  0  0  0  0  0  0  0
    4.1649   -5.4150   -1.8541 H   0  0  0  0  0  0  0  0  0  0  0  0
    4.8422   -5.2105   -3.4608 H   0  0  0  0  0  0  0  0  0  0  0  0
    6.7030   -3.8432   -2.6557 H   0  0  0  0  0  0  0  0  0  0  0  0
  1  2  1  0  0  0  0
  1 21  1  0  0  0  0
  1 22  1  0  0  0  0
  1 23  1  0  0  0  0
  2  3  1  0  0  0  0
  3  4  1  0  0  0  0
  3  8  2  0  0  0  0
  4  5  2  0  0  0  0
  4 24  1  0  0  0  0
  5  6  1  0  0  0  0
  5 25  1  0  0  0  0
  6  7  2  0  0  0  0
  6 20  1  0  0  0  0
  7  8  1  0  0  0  0
  7  9  1  0  0  0  0
  8 26  1  0  0  0  0
  9 10  1  0  0  0  0
 10 11  1  0  0  0  0
 10 20  1  0  0  0  0
 10 27  1  0  0  0  0
 11 12  1  0  0  0  0
 11 17  2  0  0  0  0
 12 13  2  0  0  0  0
 12 28  1  0  0  0  0
 13 14  1  0  0  0  0
 13 29  1  0  0  0  0
 14 15  1  0  0  0  0
 14 16  2  0  0  0  0
 15 30  1  0  0  0  0
 16 17  1  0  0  0  0
 16 31  1  0  0  0  0
 17 18  1  0  0  0  0
 18 19  1  0  0  0  0
 19 20  1  0  0  0  0
 19 32  1  0  0  0  0
 19 33  1  0  0  0  0
 20 34  1  0  0  0  0
M  END
$$$$
