CHEBI:18033
 OpenBabel04242423263D

 18 18  0  0  0  0  0  0  0  0999 V2000
    3.0023   -0.5980   -3.5351 O   0  0  0  0  0  0  0  0  0  0  0  0
    2.5566   -0.5884   -2.3972 C   0  0  0  0  0  0  0  0  0  0  0  0
    3.2280   -0.6895   -1.2049 N   0  0  0  0  0  0  0  0  0  0  0  0
    4.6176   -0.8328   -0.9872 C   0  0  0  0  0  0  0  0  0  0  0  0
    5.5393   -0.8969   -2.0374 C   0  0  0  0  0  0  0  0  0  0  0  0
    6.9079   -1.0394   -1.7827 C   0  0  0  0  0  0  0  0  0  0  0  0
    7.3773   -1.1199   -0.4746 C   0  0  0  0  0  0  0  0  0  0  0  0
    6.4779   -1.0582    0.5873 C   0  0  0  0  0  0  0  0  0  0  0  0
    5.1054   -0.9155    0.3343 C   0  0  0  0  0  0  0  0  0  0  0  0
    4.2080   -0.8564    1.5133 C   0  0  0  0  0  0  0  0  0  0  0  0
    2.9915   -0.7348    1.4089 O   0  0  0  0  0  0  0  0  0  0  0  0
    1.4719   -0.4874   -2.2187 H   0  0  0  0  0  0  0  0  0  0  0  0
    2.6556   -0.6566   -0.3573 H   0  0  0  0  0  0  0  0  0  0  0  0
    5.2238   -0.8390   -3.0753 H   0  0  0  0  0  0  0  0  0  0  0  0
    7.6056   -1.0870   -2.6162 H   0  0  0  0  0  0  0  0  0  0  0  0
    8.4426   -1.2306   -0.2860 H   0  0  0  0  0  0  0  0  0  0  0  0
    6.8582   -1.1223    1.6037 H   0  0  0  0  0  0  0  0  0  0  0  0
    4.6881   -0.9275    2.5039 H   0  0  0  0  0  0  0  0  0  0  0  0
  1  2  2  0  0  0  0
  2  3  1  0  0  0  0
  2 12  1  0  0  0  0
  3  4  1  0  0  0  0
  3 13  1  0  0  0  0
  4  5  1  0  0  0  0
  4  9  2  0  0  0  0
  5  6  2  0  0  0  0
  5 14  1  0  0  0  0
  6  7  1  0  0  0  0
  6 15  1  0  0  0  0
  7  8  2  0  0  0  0
  7 16  1  0  0  0  0
  8  9  1  0  0  0  0
  8 17  1  0  0  0  0
  9 10  1  0  0  0  0
 10 11  2  0  0  0  0
 10 18  1  0  0  0  0
M  END
$$$$
