CHEBI:18118
 OpenBabel04242423333D

 18 18  0  0  1  0  0  0  0  0999 V2000
    1.4843    0.1920    0.4925 O   0  0  0  0  0  0  0  0  0  0  0  0
    2.6232    0.1094    0.0597 C   0  0  0  0  0  0  0  0  0  0  0  0
    3.4599    1.1798   -0.1073 O   0  0  0  0  0  0  0  0  0  0  0  0
    4.5668    0.7438   -0.9055 C   0  0  1  0  0  0  0  0  0  0  0  0
    5.7790    1.6393   -0.6741 C   0  0  0  0  0  0  0  0  0  0  0  0
    6.8543    1.2876   -1.5335 O   0  0  0  0  0  0  0  0  0  0  0  0
    4.7436   -0.7190   -0.5223 C   0  0  1  0  0  0  0  0  0  0  0  0
    5.4071   -0.8983    0.7351 O   0  0  0  0  0  0  0  0  0  0  0  0
    3.2954   -1.1720   -0.4058 C   0  0  2  0  0  0  0  0  0  0  0  0
    2.7793   -1.6018   -1.6564 O   0  0  0  0  0  0  0  0  0  0  0  0
    4.2683    0.8197   -1.9603 H   0  0  0  0  0  0  0  0  0  0  0  0
    5.5181    2.6892   -0.8501 H   0  0  0  0  0  0  0  0  0  0  0  0
    6.1268    1.5836    0.3624 H   0  0  0  0  0  0  0  0  0  0  0  0
    6.6398    1.6007   -2.4296 H   0  0  0  0  0  0  0  0  0  0  0  0
    5.3059   -1.2717   -1.2811 H   0  0  0  0  0  0  0  0  0  0  0  0
    5.0997   -0.2261    1.3691 H   0  0  0  0  0  0  0  0  0  0  0  0
    3.1738   -1.9572    0.3469 H   0  0  0  0  0  0  0  0  0  0  0  0
    1.8370   -1.8116   -1.5097 H   0  0  0  0  0  0  0  0  0  0  0  0
  1  2  2  0  0  0  0
  2  3  1  0  0  0  0
  2  9  1  0  0  0  0
  3  4  1  0  0  0  0
  4  7  1  0  0  0  0
  4  5  1  0  0  0  0
  4 11  1  6  0  0  0
  5  6  1  0  0  0  0
  5 12  1  0  0  0  0
  5 13  1  0  0  0  0
  6 14  1  0  0  0  0
  7  9  1  0  0  0  0
  7  8  1  0  0  0  0
  7 15  1  6  0  0  0
  8 16  1  0  0  0  0
  9 10  1  0  0  0  0
  9 17  1  1  0  0  0
 10 18  1  0  0  0  0
M  END
$$$$
