CHEBI:27465
 OpenBabel04252410133D

 40 40  0  0  1  0  0  0  0  0999 V2000
    5.4391   -6.9415   -1.5181 C   0  0  0  0  0  0  0  0  0  0  0  0
    5.4518   -5.5750   -2.1486 C   0  0  0  0  0  0  0  0  0  0  0  0
    5.1729   -5.4074   -3.3334 O   0  0  0  0  0  0  0  0  0  0  0  0
    5.7790   -4.5566   -1.2879 N   0  0  0  0  0  0  0  0  0  0  0  0
    5.9220   -3.1561   -1.7333 C   0  0  1  0  0  0  0  0  0  0  0  0
    4.5690   -2.3859   -1.7627 C   0  0  0  0  0  0  0  0  0  0  0  0
    3.6347   -2.9668   -2.6528 O   0  0  0  0  0  0  0  0  0  0  0  0
    3.8790   -2.7923   -4.2202 P   0  0  0  0  0  0  0  0  0  0  0  0
    5.1821   -2.2606   -4.7074 O   0  0  0  0  0  0  0  0  0  0  0  0
    3.5191   -4.2393   -4.7986 O   0  0  0  0  0  0  0  0  0  0  0  0
    2.5722   -2.0152   -4.7122 O   0  0  0  0  0  0  0  0  0  0  0  0
    4.7202   -0.9972   -2.0526 O   0  0  0  0  0  0  0  0  0  0  0  0
    5.5975   -0.2954   -1.1714 C   0  0  2  0  0  0  0  0  0  0  0  0
    5.6494    1.1699   -1.6303 C   0  0  0  0  0  0  0  0  0  0  0  0
    6.5193    1.9201   -0.7942 O   0  0  0  0  0  0  0  0  0  0  0  0
    6.5707    3.5094   -0.9852 P   0  0  0  0  0  0  0  0  0  0  0  0
    7.4943    4.2355   -0.0719 O   0  0  0  0  0  0  0  0  0  0  0  0
    6.9355    3.7298   -2.5203 O   0  0  0  0  0  0  0  0  0  0  0  0
    5.0646    4.0182   -0.8941 O   0  0  0  0  0  0  0  0  0  0  0  0
    6.9968   -0.9340   -1.1545 C   0  0  1  0  0  0  0  0  0  0  0  0
    7.8695   -0.3427   -0.1819 O   0  0  0  0  0  0  0  0  0  0  0  0
    6.8733   -2.4134   -0.7851 C   0  0  2  0  0  0  0  0  0  0  0  0
    8.1704   -3.0292   -0.7966 O   0  0  0  0  0  0  0  0  0  0  0  0
    5.6669   -6.8994   -0.4496 H   0  0  0  0  0  0  0  0  0  0  0  0
    6.1821   -7.5725   -2.0124 H   0  0  0  0  0  0  0  0  0  0  0  0
    4.4432   -7.3765   -1.6411 H   0  0  0  0  0  0  0  0  0  0  0  0
    6.3017   -4.8119   -0.4566 H   0  0  0  0  0  0  0  0  0  0  0  0
    6.3742   -3.1909   -2.7299 H   0  0  0  0  0  0  0  0  0  0  0  0
    4.1077   -2.4598   -0.7698 H   0  0  0  0  0  0  0  0  0  0  0  0
    4.2274   -4.8648   -4.5030 H   0  0  0  0  0  0  0  0  0  0  0  0
    1.8288   -2.6429   -4.7440 H   0  0  0  0  0  0  0  0  0  0  0  0
    5.1818   -0.3121   -0.1548 H   0  0  0  0  0  0  0  0  0  0  0  0
    4.6396    1.5941   -1.6024 H   0  0  0  0  0  0  0  0  0  0  0  0
    5.9985    1.2295   -2.6674 H   0  0  0  0  0  0  0  0  0  0  0  0
    7.8935    3.8699   -2.6383 H   0  0  0  0  0  0  0  0  0  0  0  0
    5.0289    4.9806   -0.7461 H   0  0  0  0  0  0  0  0  0  0  0  0
    7.4832   -0.8390   -2.1330 H   0  0  0  0  0  0  0  0  0  0  0  0
    7.7504    0.6279   -0.2372 H   0  0  0  0  0  0  0  0  0  0  0  0
    6.5181   -2.5027    0.2503 H   0  0  0  0  0  0  0  0  0  0  0  0
    8.7703   -2.3666   -0.3950 H   0  0  0  0  0  0  0  0  0  0  0  0
  1  2  1  0  0  0  0
  1 24  1  0  0  0  0
  1 25  1  0  0  0  0
  1 26  1  0  0  0  0
  2  3  2  0  0  0  0
  2  4  1  0  0  0  0
  4 27  1  0  0  0  0
  5  6  1  0  0  0  0
  5 22  1  0  0  0  0
  5  4  1  0  0  0  0
  5 28  1  6  0  0  0
  6  7  1  0  0  0  0
  6 12  1  0  0  0  0
  6 29  1  0  0  0  0
  7  8  1  0  0  0  0
  8  9  2  0  0  0  0
  8 10  1  0  0  0  0
  8 11  1  0  0  0  0
 10 30  1  0  0  0  0
 11 31  1  0  0  0  0
 12 13  1  0  0  0  0
 13 14  1  0  0  0  0
 13 20  1  0  0  0  0
 13 32  1  1  0  0  0
 14 15  1  0  0  0  0
 14 33  1  0  0  0  0
 14 34  1  0  0  0  0
 15 16  1  0  0  0  0
 16 17  2  0  0  0  0
 16 18  1  0  0  0  0
 16 19  1  0  0  0  0
 18 35  1  0  0  0  0
 19 36  1  0  0  0  0
 20 21  1  0  0  0  0
 20 22  1  0  0  0  0
 20 37  1  6  0  0  0
 21 38  1  0  0  0  0
 22 23  1  0  0  0  0
 22 39  1  1  0  0  0
 23 40  1  0  0  0  0
M  END
$$$$
