CHEBI:16031
 OpenBabel04242413393D

 23 24  0  0  0  0  0  0  0  0999 V2000
    3.8210   -1.8658   -3.2275 N   0  0  0  0  0  0  0  0  0  0  0  0
    3.1964   -2.1582   -2.0480 C   0  0  0  0  0  0  0  0  0  0  0  0
    2.3361   -3.0344   -2.0075 O   0  0  0  0  0  0  0  0  0  0  0  0
    3.5454   -1.2900   -0.8505 C   0  0  0  0  0  0  0  0  0  0  0  0
    5.0103   -1.0032   -0.7204 C   0  0  0  0  0  0  0  0  0  0  0  0
    5.6106    0.2413   -0.7567 C   0  0  0  0  0  0  0  0  0  0  0  0
    6.9597    0.0741   -0.5958 N   0  0  0  0  0  0  0  0  0  0  0  0
    7.2609   -1.2608   -0.4625 C   0  0  0  0  0  0  0  0  0  0  0  0
    8.4976   -1.8925   -0.2854 C   0  0  0  0  0  0  0  0  0  0  0  0
    8.5031   -3.2856   -0.1714 C   0  0  0  0  0  0  0  0  0  0  0  0
    7.3180   -4.0146   -0.2298 C   0  0  0  0  0  0  0  0  0  0  0  0
    6.0897   -3.3671   -0.4056 C   0  0  0  0  0  0  0  0  0  0  0  0
    6.0569   -1.9624   -0.5264 C   0  0  0  0  0  0  0  0  0  0  0  0
    3.6482   -2.5033   -3.9933 H   0  0  0  0  0  0  0  0  0  0  0  0
    4.7046   -1.3710   -3.2250 H   0  0  0  0  0  0  0  0  0  0  0  0
    3.2049   -1.8056    0.0552 H   0  0  0  0  0  0  0  0  0  0  0  0
    2.9739   -0.3587   -0.9365 H   0  0  0  0  0  0  0  0  0  0  0  0
    5.1907    1.2319   -0.8756 H   0  0  0  0  0  0  0  0  0  0  0  0
    7.6422    0.8193   -0.5729 H   0  0  0  0  0  0  0  0  0  0  0  0
    9.4229   -1.3279   -0.2353 H   0  0  0  0  0  0  0  0  0  0  0  0
    9.4473   -3.8074   -0.0321 H   0  0  0  0  0  0  0  0  0  0  0  0
    7.3435   -5.0977   -0.1365 H   0  0  0  0  0  0  0  0  0  0  0  0
    5.1726   -3.9489   -0.4480 H   0  0  0  0  0  0  0  0  0  0  0  0
  1  2  1  0  0  0  0
  1 14  1  0  0  0  0
  1 15  1  0  0  0  0
  2  3  2  0  0  0  0
  2  4  1  0  0  0  0
  4  5  1  0  0  0  0
  4 16  1  0  0  0  0
  4 17  1  0  0  0  0
  5  6  2  0  0  0  0
  5 13  1  0  0  0  0
  6  7  1  0  0  0  0
  6 18  1  0  0  0  0
  7  8  1  0  0  0  0
  7 19  1  0  0  0  0
  8  9  1  0  0  0  0
  8 13  2  0  0  0  0
  9 10  2  0  0  0  0
  9 20  1  0  0  0  0
 10 11  1  0  0  0  0
 10 21  1  0  0  0  0
 11 12  2  0  0  0  0
 11 22  1  0  0  0  0
 12 13  1  0  0  0  0
 12 23  1  0  0  0  0
M  END
$$$$
