CHEBI:16402
 OpenBabel04242414203D

159159  0  0  1  0  0  0  0  0999 V2000
   22.1237   -5.2670   53.0079 C   0  0  0  0  0  0  0  0  0  0  0  0
   21.8085   -3.9027   53.5714 C   0  0  0  0  0  0  0  0  0  0  0  0
   22.9857   -3.1422   54.1010 C   0  0  0  0  0  0  0  0  0  0  0  0
   20.5446   -3.4696   53.5454 C   0  0  0  0  0  0  0  0  0  0  0  0
   19.9209   -2.1879   53.9842 C   0  0  0  0  0  0  0  0  0  0  0  0
   18.7799   -2.3580   54.9877 C   0  0  0  0  0  0  0  0  0  0  0  0
   17.4496   -3.0749   54.7481 C   0  0  0  0  0  0  0  0  0  0  0  0
   16.5539   -2.8241   55.9671 C   0  0  0  0  0  0  0  0  0  0  0  0
   16.9312   -3.8770   53.7860 C   0  0  0  0  0  0  0  0  0  0  0  0
   17.4076   -4.6420   52.5636 C   0  0  0  0  0  0  0  0  0  0  0  0
   17.3399   -4.0057   51.1593 C   0  0  0  0  0  0  0  0  0  0  0  0
   18.6513   -3.5241   50.5696 C   0  0  0  0  0  0  0  0  0  0  0  0
   18.8511   -2.0273   50.6339 C   0  0  0  0  0  0  0  0  0  0  0  0
   19.6125   -4.2502   49.9550 C   0  0  0  0  0  0  0  0  0  0  0  0
   19.7644   -5.7087   49.5854 C   0  0  0  0  0  0  0  0  0  0  0  0
   18.5559   -6.4214   48.9680 C   0  0  0  0  0  0  0  0  0  0  0  0
   18.9270   -7.7001   48.2160 C   0  0  0  0  0  0  0  0  0  0  0  0
   18.7107   -8.9775   48.9826 C   0  0  0  0  0  0  0  0  0  0  0  0
   19.3421   -7.6565   46.9309 C   0  0  0  0  0  0  0  0  0  0  0  0
   19.6751   -8.8273   46.0280 C   0  0  0  0  0  0  0  0  0  0  0  0
   18.4395   -9.2380   45.2127 C   0  0  0  0  0  0  0  0  0  0  0  0
   18.5077  -10.4523   44.2959 C   0  0  0  0  0  0  0  0  0  0  0  0
   17.2183  -10.6930   43.5434 C   0  0  0  0  0  0  0  0  0  0  0  0
   19.5689  -11.2772   44.1636 C   0  0  0  0  0  0  0  0  0  0  0  0
   19.6437  -12.4868   43.2533 C   0  0  0  0  0  0  0  0  0  0  0  0
   19.1425  -13.7783   43.9287 C   0  0  0  0  0  0  0  0  0  0  0  0
   19.0945  -15.0405   43.0677 C   0  0  0  0  0  0  0  0  0  0  0  0
   19.1634  -14.8829   41.5725 C   0  0  0  0  0  0  0  0  0  0  0  0
   18.9761  -16.2466   43.6670 C   0  0  0  0  0  0  0  0  0  0  0  0
   18.9266  -17.6078   43.0024 C   0  0  0  0  0  0  0  0  0  0  0  0
   20.2768  -17.9884   42.3795 C   0  0  0  0  0  0  0  0  0  0  0  0
   20.3703  -19.3542   41.7199 C   0  0  0  0  0  0  0  0  0  0  0  0
   20.0931  -20.5214   42.6337 C   0  0  0  0  0  0  0  0  0  0  0  0
   20.7807  -19.5711   40.4482 C   0  0  0  0  0  0  0  0  0  0  0  0
   21.2357  -18.5329   39.4515 C   0  0  0  0  0  0  0  0  0  0  0  0
   21.9256  -19.0727   38.1744 C   0  0  0  0  0  0  0  0  0  0  0  0
   23.2298  -19.8688   38.1486 C   0  0  0  0  0  0  0  0  0  0  0  0
   23.4247  -20.6205   36.8467 C   0  0  0  0  0  0  0  0  0  0  0  0
   24.2203  -19.9636   39.0574 C   0  0  0  0  0  0  0  0  0  0  0  0
   24.3920  -19.2451   40.3529 C   0  0  0  0  0  0  0  0  0  0  0  0
   24.0562  -20.1487   41.5420 C   0  0  0  0  0  0  0  0  0  0  0  0
   24.0261  -19.4329   42.8722 C   0  0  0  0  0  0  0  0  0  0  0  0
   23.6454  -17.9824   42.8637 C   0  0  0  0  0  0  0  0  0  0  0  0
   24.3406  -20.0990   43.9979 C   0  0  0  0  0  0  0  0  0  0  0  0
   24.3853  -19.5234   45.3808 C   0  0  0  0  0  0  0  0  0  0  0  0
   25.7093  -18.8036   45.6809 C   0  0  0  0  0  0  0  0  0  0  0  0
   25.8837  -17.3585   45.2281 C   0  0  0  0  0  0  0  0  0  0  0  0
   24.7630  -16.3698   45.4370 C   0  0  0  0  0  0  0  0  0  0  0  0
   27.0405  -16.8428   44.7596 C   0  0  0  0  0  0  0  0  0  0  0  0
   28.3879  -17.4829   44.7010 C   0  0  0  0  0  0  0  0  0  0  0  0
   29.3372  -16.7009   45.4121 O   0  0  0  0  0  0  0  0  0  0  0  0
   29.1905  -16.4892   47.0021 P   0  0  0  0  0  0  0  0  0  0  0  0
   30.4764  -16.1839   47.7015 O   0  0  0  0  0  0  0  0  0  0  0  0
   28.1091  -15.3156   47.1381 O   0  0  0  0  0  0  0  0  0  0  0  0
   28.4608  -17.8113   47.5201 O   0  0  0  0  0  0  0  0  0  0  0  0
   27.6581  -17.8308   48.6738 C   0  0  2  0  0  0  0  0  0  0  0  0
   26.3533  -17.3214   48.3926 O   0  0  0  0  0  0  0  0  0  0  0  0
   25.3977  -17.6812   49.3988 C   0  0  2  0  0  0  0  0  0  0  0  0
   24.0300  -17.1606   48.9399 C   0  0  0  0  0  0  0  0  0  0  0  0
   24.0660  -15.7463   48.7496 O   0  0  0  0  0  0  0  0  0  0  0  0
   25.8031  -17.0948   50.7562 C   0  0  1  0  0  0  0  0  0  0  0  0
   24.9686  -17.6435   51.7817 O   0  0  0  0  0  0  0  0  0  0  0  0
   27.2716  -17.4254   51.0842 C   0  0  2  0  0  0  0  0  0  0  0  0
   27.6641  -16.6641   52.2371 O   0  0  0  0  0  0  0  0  0  0  0  0
   28.2094  -17.1025   49.9093 C   0  0  2  0  0  0  0  0  0  0  0  0
   28.2210  -15.6714   49.7026 O   0  0  0  0  0  0  0  0  0  0  0  0
   22.6226   -5.8858   53.7587 H   0  0  0  0  0  0  0  0  0  0  0  0
   22.7696   -5.1746   52.1300 H   0  0  0  0  0  0  0  0  0  0  0  0
   21.2198   -5.8042   52.6960 H   0  0  0  0  0  0  0  0  0  0  0  0
   23.4673   -3.7098   54.9029 H   0  0  0  0  0  0  0  0  0  0  0  0
   22.7174   -2.1633   54.5040 H   0  0  0  0  0  0  0  0  0  0  0  0
   23.7151   -2.9824   53.3008 H   0  0  0  0  0  0  0  0  0  0  0  0
   19.8337   -4.1373   53.0934 H   0  0  0  0  0  0  0  0  0  0  0  0
   19.5565   -1.6326   53.1216 H   0  0  0  0  0  0  0  0  0  0  0  0
   20.6722   -1.5362   54.4442 H   0  0  0  0  0  0  0  0  0  0  0  0
   18.4997   -1.3220   55.2423 H   0  0  0  0  0  0  0  0  0  0  0  0
   19.2151   -2.7709   55.9083 H   0  0  0  0  0  0  0  0  0  0  0  0
   15.6295   -3.4104   55.9561 H   0  0  0  0  0  0  0  0  0  0  0  0
   16.2843   -1.7660   56.0413 H   0  0  0  0  0  0  0  0  0  0  0  0
   17.0888   -3.1086   56.8827 H   0  0  0  0  0  0  0  0  0  0  0  0
   15.8931   -4.1739   53.9744 H   0  0  0  0  0  0  0  0  0  0  0  0
   16.6902   -5.4788   52.5075 H   0  0  0  0  0  0  0  0  0  0  0  0
   18.3340   -5.1848   52.7465 H   0  0  0  0  0  0  0  0  0  0  0  0
   16.6064   -3.1890   51.1562 H   0  0  0  0  0  0  0  0  0  0  0  0
   16.9183   -4.7449   50.4689 H   0  0  0  0  0  0  0  0  0  0  0  0
   18.2483   -1.5753   51.4267 H   0  0  0  0  0  0  0  0  0  0  0  0
   18.5491   -1.5684   49.6875 H   0  0  0  0  0  0  0  0  0  0  0  0
   19.8995   -1.7690   50.8233 H   0  0  0  0  0  0  0  0  0  0  0  0
   20.4915   -3.6852   49.6298 H   0  0  0  0  0  0  0  0  0  0  0  0
   20.1486   -6.2675   50.4460 H   0  0  0  0  0  0  0  0  0  0  0  0
   20.5734   -5.7353   48.8394 H   0  0  0  0  0  0  0  0  0  0  0  0
   18.0320   -5.7456   48.2801 H   0  0  0  0  0  0  0  0  0  0  0  0
   17.8361   -6.6685   49.7571 H   0  0  0  0  0  0  0  0  0  0  0  0
   18.9229   -9.8760   48.3975 H   0  0  0  0  0  0  0  0  0  0  0  0
   17.6658   -9.0495   49.3023 H   0  0  0  0  0  0  0  0  0  0  0  0
   19.3510   -9.0014   49.8693 H   0  0  0  0  0  0  0  0  0  0  0  0
   19.4400   -6.6815   46.4525 H   0  0  0  0  0  0  0  0  0  0  0  0
   20.4841   -8.5227   45.3514 H   0  0  0  0  0  0  0  0  0  0  0  0
   20.0670   -9.6701   46.6057 H   0  0  0  0  0  0  0  0  0  0  0  0
   18.1499   -8.3760   44.5950 H   0  0  0  0  0  0  0  0  0  0  0  0
   17.6095   -9.4130   45.9111 H   0  0  0  0  0  0  0  0  0  0  0  0
   16.6764  -11.5368   43.9824 H   0  0  0  0  0  0  0  0  0  0  0  0
   17.3951  -10.8869   42.4818 H   0  0  0  0  0  0  0  0  0  0  0  0
   16.5597   -9.8189   43.5927 H   0  0  0  0  0  0  0  0  0  0  0  0
   20.4743  -11.0912   44.7373 H   0  0  0  0  0  0  0  0  0  0  0  0
   19.0774  -12.2860   42.3388 H   0  0  0  0  0  0  0  0  0  0  0  0
   20.6852  -12.6149   42.9323 H   0  0  0  0  0  0  0  0  0  0  0  0
   18.1276  -13.6048   44.3090 H   0  0  0  0  0  0  0  0  0  0  0  0
   19.7787  -13.9720   44.8037 H   0  0  0  0  0  0  0  0  0  0  0  0
   18.8611  -15.7873   41.0369 H   0  0  0  0  0  0  0  0  0  0  0  0
   20.1872  -14.6400   41.2688 H   0  0  0  0  0  0  0  0  0  0  0  0
   18.4912  -14.0928   41.2279 H   0  0  0  0  0  0  0  0  0  0  0  0
   18.9153  -16.2767   44.7557 H   0  0  0  0  0  0  0  0  0  0  0  0
   18.1169  -17.6475   42.2659 H   0  0  0  0  0  0  0  0  0  0  0  0
   18.6673  -18.3387   43.7797 H   0  0  0  0  0  0  0  0  0  0  0  0
   21.0131  -17.9599   43.1883 H   0  0  0  0  0  0  0  0  0  0  0  0
   20.5752  -17.2139   41.6679 H   0  0  0  0  0  0  0  0  0  0  0  0
   20.3701  -21.4784   42.1790 H   0  0  0  0  0  0  0  0  0  0  0  0
   19.0323  -20.5668   42.8951 H   0  0  0  0  0  0  0  0  0  0  0  0
   20.6776  -20.4236   43.5557 H   0  0  0  0  0  0  0  0  0  0  0  0
   20.8364  -20.6001   40.0932 H   0  0  0  0  0  0  0  0  0  0  0  0
   21.8680  -17.7776   39.9224 H   0  0  0  0  0  0  0  0  0  0  0  0
   20.3335  -18.0032   39.1153 H   0  0  0  0  0  0  0  0  0  0  0  0
   22.0827  -18.2095   37.5122 H   0  0  0  0  0  0  0  0  0  0  0  0
   21.1687  -19.6917   37.6716 H   0  0  0  0  0  0  0  0  0  0  0  0
   24.3110  -21.2652   36.8617 H   0  0  0  0  0  0  0  0  0  0  0  0
   23.5500  -19.9087   36.0239 H   0  0  0  0  0  0  0  0  0  0  0  0
   22.5630  -21.2601   36.6355 H   0  0  0  0  0  0  0  0  0  0  0  0
   25.0723  -20.6058   38.8292 H   0  0  0  0  0  0  0  0  0  0  0  0
   23.8076  -18.3277   40.3314 H   0  0  0  0  0  0  0  0  0  0  0  0
   25.4344  -18.9112   40.4374 H   0  0  0  0  0  0  0  0  0  0  0  0
   24.7936  -20.9626   41.5783 H   0  0  0  0  0  0  0  0  0  0  0  0
   23.0855  -20.6312   41.3925 H   0  0  0  0  0  0  0  0  0  0  0  0
   23.1798  -17.6734   43.7995 H   0  0  0  0  0  0  0  0  0  0  0  0
   24.5224  -17.3628   42.6593 H   0  0  0  0  0  0  0  0  0  0  0  0
   22.9087  -17.7600   42.0944 H   0  0  0  0  0  0  0  0  0  0  0  0
   24.6017  -21.1544   43.9304 H   0  0  0  0  0  0  0  0  0  0  0  0
   24.2983  -20.3694   46.0777 H   0  0  0  0  0  0  0  0  0  0  0  0
   23.5061  -18.9090   45.5933 H   0  0  0  0  0  0  0  0  0  0  0  0
   26.5203  -19.4243   45.2829 H   0  0  0  0  0  0  0  0  0  0  0  0
   25.8257  -18.8387   46.7627 H   0  0  0  0  0  0  0  0  0  0  0  0
   23.8540  -16.8249   45.8311 H   0  0  0  0  0  0  0  0  0  0  0  0
   24.5060  -15.8605   44.5024 H   0  0  0  0  0  0  0  0  0  0  0  0
   25.0730  -15.5990   46.1484 H   0  0  0  0  0  0  0  0  0  0  0  0
   27.0549  -15.7891   44.4773 H   0  0  0  0  0  0  0  0  0  0  0  0
   28.7121  -17.5272   43.6561 H   0  0  0  0  0  0  0  0  0  0  0  0
   28.4138  -18.5045   45.0855 H   0  0  0  0  0  0  0  0  0  0  0  0
   28.0576  -15.0641   48.0879 H   0  0  0  0  0  0  0  0  0  0  0  0
   27.5623  -18.8977   48.9107 H   0  0  0  0  0  0  0  0  0  0  0  0
   25.3306  -18.7757   49.4542 H   0  0  0  0  0  0  0  0  0  0  0  0
   23.7573  -17.6108   47.9808 H   0  0  0  0  0  0  0  0  0  0  0  0
   23.2418  -17.3958   49.6597 H   0  0  0  0  0  0  0  0  0  0  0  0
   24.8737  -15.5692   48.2291 H   0  0  0  0  0  0  0  0  0  0  0  0
   25.6655  -16.0069   50.7644 H   0  0  0  0  0  0  0  0  0  0  0  0
   25.1856  -17.1454   52.5926 H   0  0  0  0  0  0  0  0  0  0  0  0
   27.3487  -18.4869   51.3526 H   0  0  0  0  0  0  0  0  0  0  0  0
   28.3961  -17.1425   52.6684 H   0  0  0  0  0  0  0  0  0  0  0  0
   29.2403  -17.3995   50.1262 H   0  0  0  0  0  0  0  0  0  0  0  0
   28.3299  -15.2845   50.5983 H   0  0  0  0  0  0  0  0  0  0  0  0
  1  2  1  0  0  0  0
  1 67  1  0  0  0  0
  1 68  1  0  0  0  0
  1 69  1  0  0  0  0
  2  3  1  0  0  0  0
  2  4  2  0  0  0  0
  3 70  1  0  0  0  0
  3 71  1  0  0  0  0
  3 72  1  0  0  0  0
  4  5  1  0  0  0  0
  4 73  1  0  0  0  0
  5  6  1  0  0  0  0
  5 74  1  0  0  0  0
  5 75  1  0  0  0  0
  6  7  1  0  0  0  0
  6 76  1  0  0  0  0
  6 77  1  0  0  0  0
  7  8  1  0  0  0  0
  7  9  2  0  0  0  0
  8 78  1  0  0  0  0
  8 79  1  0  0  0  0
  8 80  1  0  0  0  0
  9 10  1  0  0  0  0
  9 81  1  0  0  0  0
 10 11  1  0  0  0  0
 10 82  1  0  0  0  0
 10 83  1  0  0  0  0
 11 12  1  0  0  0  0
 11 84  1  0  0  0  0
 11 85  1  0  0  0  0
 12 13  1  0  0  0  0
 12 14  2  0  0  0  0
 13 86  1  0  0  0  0
 13 87  1  0  0  0  0
 13 88  1  0  0  0  0
 14 15  1  0  0  0  0
 14 89  1  0  0  0  0
 15 16  1  0  0  0  0
 15 90  1  0  0  0  0
 15 91  1  0  0  0  0
 16 17  1  0  0  0  0
 16 92  1  0  0  0  0
 16 93  1  0  0  0  0
 17 18  1  0  0  0  0
 17 19  2  0  0  0  0
 18 94  1  0  0  0  0
 18 95  1  0  0  0  0
 18 96  1  0  0  0  0
 19 20  1  0  0  0  0
 19 97  1  0  0  0  0
 20 21  1  0  0  0  0
 20 98  1  0  0  0  0
 20 99  1  0  0  0  0
 21 22  1  0  0  0  0
 21100  1  0  0  0  0
 21101  1  0  0  0  0
 22 23  1  0  0  0  0
 22 24  2  0  0  0  0
 23102  1  0  0  0  0
 23103  1  0  0  0  0
 23104  1  0  0  0  0
 24 25  1  0  0  0  0
 24105  1  0  0  0  0
 25 26  1  0  0  0  0
 25106  1  0  0  0  0
 25107  1  0  0  0  0
 26 27  1  0  0  0  0
 26108  1  0  0  0  0
 26109  1  0  0  0  0
 27 28  1  0  0  0  0
 27 29  2  0  0  0  0
 28110  1  0  0  0  0
 28111  1  0  0  0  0
 28112  1  0  0  0  0
 29 30  1  0  0  0  0
 29113  1  0  0  0  0
 30 31  1  0  0  0  0
 30114  1  0  0  0  0
 30115  1  0  0  0  0
 31 32  1  0  0  0  0
 31116  1  0  0  0  0
 31117  1  0  0  0  0
 32 33  1  0  0  0  0
 32 34  2  0  0  0  0
 33118  1  0  0  0  0
 33119  1  0  0  0  0
 33120  1  0  0  0  0
 34 35  1  0  0  0  0
 34121  1  0  0  0  0
 35 36  1  0  0  0  0
 35122  1  0  0  0  0
 35123  1  0  0  0  0
 36 37  1  0  0  0  0
 36124  1  0  0  0  0
 36125  1  0  0  0  0
 37 38  1  0  0  0  0
 37 39  2  0  0  0  0
 38126  1  0  0  0  0
 38127  1  0  0  0  0
 38128  1  0  0  0  0
 39 40  1  0  0  0  0
 39129  1  0  0  0  0
 40 41  1  0  0  0  0
 40130  1  0  0  0  0
 40131  1  0  0  0  0
 41 42  1  0  0  0  0
 41132  1  0  0  0  0
 41133  1  0  0  0  0
 42 43  1  0  0  0  0
 42 44  2  0  0  0  0
 43134  1  0  0  0  0
 43135  1  0  0  0  0
 43136  1  0  0  0  0
 44 45  1  0  0  0  0
 44137  1  0  0  0  0
 45 46  1  0  0  0  0
 45138  1  0  0  0  0
 45139  1  0  0  0  0
 46 47  1  0  0  0  0
 46140  1  0  0  0  0
 46141  1  0  0  0  0
 47 48  1  0  0  0  0
 47 49  2  0  0  0  0
 48142  1  0  0  0  0
 48143  1  0  0  0  0
 48144  1  0  0  0  0
 49 50  1  0  0  0  0
 49145  1  0  0  0  0
 50 51  1  0  0  0  0
 50146  1  0  0  0  0
 50147  1  0  0  0  0
 51 52  1  0  0  0  0
 52 53  2  0  0  0  0
 52 54  1  0  0  0  0
 52 55  1  0  0  0  0
 54148  1  0  0  0  0
 56 57  1  0  0  0  0
 56 65  1  0  0  0  0
 56 55  1  0  0  0  0
 56149  1  1  0  0  0
 57 58  1  0  0  0  0
 58 61  1  0  0  0  0
 58 59  1  0  0  0  0
 58150  1  1  0  0  0
 59 60  1  0  0  0  0
 59151  1  0  0  0  0
 59152  1  0  0  0  0
 60153  1  0  0  0  0
 61 62  1  0  0  0  0
 61 63  1  0  0  0  0
 61154  1  6  0  0  0
 62155  1  0  0  0  0
 63 64  1  0  0  0  0
 63 65  1  0  0  0  0
 63156  1  1  0  0  0
 64157  1  0  0  0  0
 65 66  1  0  0  0  0
 65158  1  1  0  0  0
 66159  1  0  0  0  0
M  END
$$$$
