CHEBI:17268
 OpenBabel04242416083D

 24 24  0  0  1  0  0  0  0  0999 V2000
    3.1044    0.1886    1.4009 O   0  0  0  0  0  0  0  0  0  0  0  0
    2.5189   -0.0767    0.1167 C   0  0  1  0  0  0  0  0  0  0  0  0
    2.9442    1.0261   -0.8608 C   0  0  2  0  0  0  0  0  0  0  0  0
    2.3883    2.2716   -0.4091 O   0  0  0  0  0  0  0  0  0  0  0  0
    2.4585    0.7266   -2.2797 C   0  0  1  0  0  0  0  0  0  0  0  0
    2.9380    1.7559   -3.1580 O   0  0  0  0  0  0  0  0  0  0  0  0
    2.9535   -0.6408   -2.7544 C   0  0  2  0  0  0  0  0  0  0  0  0
    2.4043   -0.8960   -4.0575 O   0  0  0  0  0  0  0  0  0  0  0  0
    2.5242   -1.7514   -1.7858 C   0  0  1  0  0  0  0  0  0  0  0  0
    3.1000   -2.9851   -2.2421 O   0  0  0  0  0  0  0  0  0  0  0  0
    2.9786   -1.4605   -0.3518 C   0  0  1  0  0  0  0  0  0  0  0  0
    4.4159   -1.5300   -0.3116 O   0  0  0  0  0  0  0  0  0  0  0  0
    2.9048    1.1317    1.5783 H   0  0  0  0  0  0  0  0  0  0  0  0
    1.4305   -0.0645    0.2500 H   0  0  0  0  0  0  0  0  0  0  0  0
    4.0322    1.1644   -0.8425 H   0  0  0  0  0  0  0  0  0  0  0  0
    2.5391    2.8955   -1.1498 H   0  0  0  0  0  0  0  0  0  0  0  0
    1.3640    0.7813   -2.3300 H   0  0  0  0  0  0  0  0  0  0  0  0
    2.7768    1.4122   -4.0613 H   0  0  0  0  0  0  0  0  0  0  0  0
    4.0420   -0.6326   -2.8890 H   0  0  0  0  0  0  0  0  0  0  0  0
    2.5686   -1.8475   -4.2229 H   0  0  0  0  0  0  0  0  0  0  0  0
    1.4359   -1.8768   -1.8240 H   0  0  0  0  0  0  0  0  0  0  0  0
    3.9982   -3.0131   -1.8486 H   0  0  0  0  0  0  0  0  0  0  0  0
    2.6244   -2.2416    0.3301 H   0  0  0  0  0  0  0  0  0  0  0  0
    4.6544   -1.1884    0.5774 H   0  0  0  0  0  0  0  0  0  0  0  0
  1 13  1  0  0  0  0
  2  3  1  0  0  0  0
  2 11  1  0  0  0  0
  2  1  1  0  0  0  0
  2 14  1  1  0  0  0
  3  5  1  0  0  0  0
  3  4  1  0  0  0  0
  3 15  1  6  0  0  0
  4 16  1  0  0  0  0
  5  6  1  0  0  0  0
  5  7  1  0  0  0  0
  5 17  1  6  0  0  0
  6 18  1  0  0  0  0
  7  9  1  0  0  0  0
  7  8  1  0  0  0  0
  7 19  1  6  0  0  0
  8 20  1  0  0  0  0
  9 10  1  0  0  0  0
  9 11  1  0  0  0  0
  9 21  1  6  0  0  0
 10 22  1  0  0  0  0
 11 12  1  0  0  0  0
 11 23  1  1  0  0  0
 12 24  1  0  0  0  0
M  END
$$$$
