CHEBI:16148
 OpenBabel04242413543D

 53 52  0  0  0  0  0  0  0  0999 V2000
    4.8525   -5.4047    0.2291 C   0  0  0  0  0  0  0  0  0  0  0  0
    4.9995   -5.5829   -1.2753 C   0  0  0  0  0  0  0  0  0  0  0  0
    5.3663   -4.2880   -2.0102 C   0  0  0  0  0  0  0  0  0  0  0  0
    6.7774   -3.7706   -1.6910 C   0  0  0  0  0  0  0  0  0  0  0  0
    7.6884   -3.7972   -2.9266 C   0  0  0  0  0  0  0  0  0  0  0  0
    9.1686   -3.5906   -2.5744 C   0  0  0  0  0  0  0  0  0  0  0  0
   10.1107   -4.5954   -3.2614 C   0  0  0  0  0  0  0  0  0  0  0  0
   10.7632   -5.6229   -2.3212 C   0  0  0  0  0  0  0  0  0  0  0  0
   10.0619   -6.9813   -2.1920 C   0  0  0  0  0  0  0  0  0  0  0  0
    8.6909   -7.0086   -1.5238 C   0  0  0  0  0  0  0  0  0  0  0  0
    8.6489   -7.0981    0.0068 C   0  0  0  0  0  0  0  0  0  0  0  0
    9.2469   -5.9201    0.7824 C   0  0  0  0  0  0  0  0  0  0  0  0
   10.6382   -6.2312    1.3329 C   0  0  0  0  0  0  0  0  0  0  0  0
   11.2075   -5.1550    2.2636 C   0  0  0  0  0  0  0  0  0  0  0  0
   11.5571   -3.8177    1.6016 C   0  0  0  0  0  0  0  0  0  0  0  0
   10.4486   -2.7689    1.7168 C   0  0  0  0  0  0  0  0  0  0  0  0
   10.9331   -1.3991    1.2627 C   0  0  0  0  0  0  0  0  0  0  0  0
    4.0862   -4.6582    0.4598 H   0  0  0  0  0  0  0  0  0  0  0  0
    5.7898   -5.0906    0.6968 H   0  0  0  0  0  0  0  0  0  0  0  0
    4.5522   -6.3507    0.6916 H   0  0  0  0  0  0  0  0  0  0  0  0
    4.0462   -5.9515   -1.6726 H   0  0  0  0  0  0  0  0  0  0  0  0
    5.7429   -6.3598   -1.4826 H   0  0  0  0  0  0  0  0  0  0  0  0
    4.6331   -3.5145   -1.7537 H   0  0  0  0  0  0  0  0  0  0  0  0
    5.2604   -4.4657   -3.0874 H   0  0  0  0  0  0  0  0  0  0  0  0
    7.2265   -4.3561   -0.8847 H   0  0  0  0  0  0  0  0  0  0  0  0
    6.7117   -2.7407   -1.3202 H   0  0  0  0  0  0  0  0  0  0  0  0
    7.3713   -2.9990   -3.6101 H   0  0  0  0  0  0  0  0  0  0  0  0
    7.5477   -4.7372   -3.4705 H   0  0  0  0  0  0  0  0  0  0  0  0
    9.3318   -3.5793   -1.4933 H   0  0  0  0  0  0  0  0  0  0  0  0
    9.4461   -2.5838   -2.9156 H   0  0  0  0  0  0  0  0  0  0  0  0
   10.9335   -4.0053   -3.6882 H   0  0  0  0  0  0  0  0  0  0  0  0
    9.6342   -5.0928   -4.1133 H   0  0  0  0  0  0  0  0  0  0  0  0
   10.9550   -5.1771   -1.3446 H   0  0  0  0  0  0  0  0  0  0  0  0
   11.7567   -5.8420   -2.7372 H   0  0  0  0  0  0  0  0  0  0  0  0
   10.7269   -7.6778   -1.6679 H   0  0  0  0  0  0  0  0  0  0  0  0
    9.9460   -7.3864   -3.2064 H   0  0  0  0  0  0  0  0  0  0  0  0
    8.1691   -7.9025   -1.8943 H   0  0  0  0  0  0  0  0  0  0  0  0
    8.0907   -6.1721   -1.8634 H   0  0  0  0  0  0  0  0  0  0  0  0
    9.0946   -8.0447    0.3311 H   0  0  0  0  0  0  0  0  0  0  0  0
    7.5871   -7.1618    0.2822 H   0  0  0  0  0  0  0  0  0  0  0  0
    8.5876   -5.6981    1.6319 H   0  0  0  0  0  0  0  0  0  0  0  0
    9.2605   -5.0251    0.1636 H   0  0  0  0  0  0  0  0  0  0  0  0
   11.3420   -6.4191    0.5152 H   0  0  0  0  0  0  0  0  0  0  0  0
   10.5836   -7.1639    1.9080 H   0  0  0  0  0  0  0  0  0  0  0  0
   12.1368   -5.5651    2.6806 H   0  0  0  0  0  0  0  0  0  0  0  0
   10.5357   -5.0017    3.1167 H   0  0  0  0  0  0  0  0  0  0  0  0
   11.8374   -3.9629    0.5518 H   0  0  0  0  0  0  0  0  0  0  0  0
   12.4480   -3.4220    2.1063 H   0  0  0  0  0  0  0  0  0  0  0  0
   10.1105   -2.6936    2.7571 H   0  0  0  0  0  0  0  0  0  0  0  0
    9.5814   -3.0548    1.1158 H   0  0  0  0  0  0  0  0  0  0  0  0
   11.7617   -1.0509    1.8882 H   0  0  0  0  0  0  0  0  0  0  0  0
   10.1240   -0.6658    1.3383 H   0  0  0  0  0  0  0  0  0  0  0  0
   11.2745   -1.4254    0.2230 H   0  0  0  0  0  0  0  0  0  0  0  0
  1  2  1  0  0  0  0
  1 18  1  0  0  0  0
  1 19  1  0  0  0  0
  1 20  1  0  0  0  0
  2  3  1  0  0  0  0
  2 21  1  0  0  0  0
  2 22  1  0  0  0  0
  3  4  1  0  0  0  0
  3 23  1  0  0  0  0
  3 24  1  0  0  0  0
  4  5  1  0  0  0  0
  4 25  1  0  0  0  0
  4 26  1  0  0  0  0
  5  6  1  0  0  0  0
  5 27  1  0  0  0  0
  5 28  1  0  0  0  0
  6  7  1  0  0  0  0
  6 29  1  0  0  0  0
  6 30  1  0  0  0  0
  7  8  1  0  0  0  0
  7 31  1  0  0  0  0
  7 32  1  0  0  0  0
  8  9  1  0  0  0  0
  8 33  1  0  0  0  0
  8 34  1  0  0  0  0
  9 10  1  0  0  0  0
  9 35  1  0  0  0  0
  9 36  1  0  0  0  0
 10 11  1  0  0  0  0
 10 37  1  0  0  0  0
 10 38  1  0  0  0  0
 11 12  1  0  0  0  0
 11 39  1  0  0  0  0
 11 40  1  0  0  0  0
 12 13  1  0  0  0  0
 12 41  1  0  0  0  0
 12 42  1  0  0  0  0
 13 14  1  0  0  0  0
 13 43  1  0  0  0  0
 13 44  1  0  0  0  0
 14 15  1  0  0  0  0
 14 45  1  0  0  0  0
 14 46  1  0  0  0  0
 15 16  1  0  0  0  0
 15 47  1  0  0  0  0
 15 48  1  0  0  0  0
 16 17  1  0  0  0  0
 16 49  1  0  0  0  0
 16 50  1  0  0  0  0
 17 51  1  0  0  0  0
 17 52  1  0  0  0  0
 17 53  1  0  0  0  0
M  END
$$$$
