CHEBI:15622
 OpenBabel04242412553D

 21 20  0  0  1  0  0  0  0  0999 V2000
    5.3943   -3.5094   -4.3446 O   0  0  0  0  0  0  0  0  0  0  0  0
    5.7961   -2.7632   -5.2142 C   0  0  0  0  0  0  0  0  0  0  0  0
    6.2245   -3.1401   -6.4350 O   0  0  0  0  0  0  0  0  0  0  0  0
    5.7993   -1.2528   -5.0756 C   0  0  0  0  0  0  0  0  0  0  0  0
    6.1992   -0.6126   -6.0475 O   0  0  0  0  0  0  0  0  0  0  0  0
    5.2407   -0.5320   -3.8673 C   0  0  0  0  0  0  0  0  0  0  0  0
    4.4871    0.4265   -4.0275 O   0  0  0  0  0  0  0  0  0  0  0  0
    5.5851   -1.0641   -2.4847 C   0  0  2  0  0  0  0  0  0  0  0  0
    4.8593   -0.3390   -1.4815 O   0  0  0  0  0  0  0  0  0  0  0  0
    7.0832   -0.9656   -2.1911 C   0  0  1  0  0  0  0  0  0  0  0  0
    7.8513   -1.5324   -3.2600 O   0  0  0  0  0  0  0  0  0  0  0  0
    7.5636    0.4690   -1.9370 C   0  0  0  0  0  0  0  0  0  0  0  0
    8.9774    0.4256   -1.7199 O   0  0  0  0  0  0  0  0  0  0  0  0
    6.4677   -2.3412   -6.9614 H   0  0  0  0  0  0  0  0  0  0  0  0
    5.2472   -2.1007   -2.4225 H   0  0  0  0  0  0  0  0  0  0  0  0
    4.1703    0.1826   -1.9441 H   0  0  0  0  0  0  0  0  0  0  0  0
    7.3084   -1.5584   -1.2957 H   0  0  0  0  0  0  0  0  0  0  0  0
    8.7821   -1.3194   -3.0239 H   0  0  0  0  0  0  0  0  0  0  0  0
    7.0858    0.9041   -1.0540 H   0  0  0  0  0  0  0  0  0  0  0  0
    7.3866    1.1091   -2.8065 H   0  0  0  0  0  0  0  0  0  0  0  0
    9.2418    1.3179   -1.4297 H   0  0  0  0  0  0  0  0  0  0  0  0
  1  2  2  0  0  0  0
  2  3  1  0  0  0  0
  2  4  1  0  0  0  0
  3 14  1  0  0  0  0
  4  5  2  0  0  0  0
  4  6  1  0  0  0  0
  6  7  2  0  0  0  0
  8 10  1  0  0  0  0
  8  9  1  0  0  0  0
  8  6  1  0  0  0  0
  8 15  1  1  0  0  0
  9 16  1  0  0  0  0
 10 11  1  0  0  0  0
 10 12  1  0  0  0  0
 10 17  1  1  0  0  0
 11 18  1  0  0  0  0
 12 13  1  0  0  0  0
 12 19  1  0  0  0  0
 12 20  1  0  0  0  0
 13 21  1  0  0  0  0
M  END
$$$$
