CHEBI:16060
 OpenBabel04242413423D

 44 48  0  0  1  0  0  0  0  0999 V2000
    2.4301   -1.6525   -0.2992 C   0  0  0  0  0  0  0  0  0  0  0  0
    2.9379   -0.2504   -0.1984 C   0  0  0  0  0  0  0  0  0  0  0  0
    3.6073    0.4496   -1.1303 C   0  0  0  0  0  0  0  0  0  0  0  0
    3.9760    1.9026   -0.9423 C   0  0  0  0  0  0  0  0  0  0  0  0
    4.6877    2.4389   -2.1086 N   0  0  0  0  0  0  0  0  0  0  0  0
    5.9962    1.7690   -2.3393 C   0  0  2  0  0  0  0  0  0  0  0  0
    6.7788    2.6335   -3.4729 C   0  0  0  0  0  0  0  0  0  0  0  0
    5.8426    3.4608   -4.3821 C   0  0  0  0  0  0  0  0  0  0  0  0
    4.4686    3.2544   -4.3197 C   0  0  0  0  0  0  0  0  0  0  0  0
    3.8346    4.1030   -5.1607 N   0  0  0  0  0  0  0  0  0  0  0  0
    4.7871    4.8595   -5.8216 C   0  0  0  0  0  0  0  0  0  0  0  0
    4.6193    5.8529   -6.7945 C   0  0  0  0  0  0  0  0  0  0  0  0
    5.7674    6.4700   -7.2993 C   0  0  0  0  0  0  0  0  0  0  0  0
    7.0350    6.1101   -6.8468 C   0  0  0  0  0  0  0  0  0  0  0  0
    7.1923    5.1176   -5.8718 C   0  0  0  0  0  0  0  0  0  0  0  0
    6.0539    4.4766   -5.3478 C   0  0  0  0  0  0  0  0  0  0  0  0
    3.9797    2.2144   -3.4049 C   0  0  2  0  0  0  0  0  0  0  0  0
    3.1779    0.9404   -3.4508 C   0  0  0  0  0  0  0  0  0  0  0  0
    4.0177   -0.0126   -2.5111 C   0  0  2  0  0  0  0  0  0  0  0  0
    5.6200    0.2190   -2.5658 C   0  0  1  0  0  0  0  0  0  0  0  0
    6.2616   -0.4397   -3.7859 C   0  0  0  0  0  0  0  0  0  0  0  0
    7.6773   -0.4659   -3.6406 O   0  0  0  0  0  0  0  0  0  0  0  0
    2.8556   -2.2605    0.5045 H   0  0  0  0  0  0  0  0  0  0  0  0
    2.6661   -2.1355   -1.2492 H   0  0  0  0  0  0  0  0  0  0  0  0
    1.3408   -1.6541   -0.1872 H   0  0  0  0  0  0  0  0  0  0  0  0
    2.6938    0.2482    0.7401 H   0  0  0  0  0  0  0  0  0  0  0  0
    4.5973    2.0233   -0.0463 H   0  0  0  0  0  0  0  0  0  0  0  0
    3.0672    2.4959   -0.7843 H   0  0  0  0  0  0  0  0  0  0  0  0
    6.6181    1.8273   -1.4356 H   0  0  0  0  0  0  0  0  0  0  0  0
    7.4231    2.0014   -4.0876 H   0  0  0  0  0  0  0  0  0  0  0  0
    7.4193    3.3554   -2.9494 H   0  0  0  0  0  0  0  0  0  0  0  0
    2.8368    4.1823   -5.2970 H   0  0  0  0  0  0  0  0  0  0  0  0
    3.6342    6.1388   -7.1475 H   0  0  0  0  0  0  0  0  0  0  0  0
    5.6675    7.2446   -8.0560 H   0  0  0  0  0  0  0  0  0  0  0  0
    7.9134    6.6049   -7.2530 H   0  0  0  0  0  0  0  0  0  0  0  0
    8.1836    4.8443   -5.5241 H   0  0  0  0  0  0  0  0  0  0  0  0
    4.6583    1.6041   -4.0315 H   0  0  0  0  0  0  0  0  0  0  0  0
    3.1055    0.5113   -4.4605 H   0  0  0  0  0  0  0  0  0  0  0  0
    2.1520    1.0870   -3.0922 H   0  0  0  0  0  0  0  0  0  0  0  0
    3.7734   -1.0589   -2.7072 H   0  0  0  0  0  0  0  0  0  0  0  0
    6.0288   -0.3035   -1.6858 H   0  0  0  0  0  0  0  0  0  0  0  0
    5.9197   -1.4747   -3.8924 H   0  0  0  0  0  0  0  0  0  0  0  0
    6.0243    0.0796   -4.7179 H   0  0  0  0  0  0  0  0  0  0  0  0
    7.8883   -1.0694   -2.9070 H   0  0  0  0  0  0  0  0  0  0  0  0
  1  2  1  0  0  0  0
  1 23  1  0  0  0  0
  1 24  1  0  0  0  0
  1 25  1  0  0  0  0
  2  3  2  0  0  0  0
  2 26  1  0  0  0  0
  3  4  1  0  0  0  0
  3 19  1  0  0  0  0
  4  5  1  0  0  0  0
  4 27  1  0  0  0  0
  4 28  1  0  0  0  0
  5  6  1  0  0  0  0
  5 17  1  0  0  0  0
  6  7  1  0  0  0  0
  6 20  1  0  0  0  0
  6 29  1  1  0  0  0
  7  8  1  0  0  0  0
  7 30  1  0  0  0  0
  7 31  1  0  0  0  0
  8  9  2  0  0  0  0
  8 16  1  0  0  0  0
  9 10  1  0  0  0  0
  9 17  1  0  0  0  0
 10 11  1  0  0  0  0
 10 32  1  0  0  0  0
 11 12  1  0  0  0  0
 11 16  2  0  0  0  0
 12 13  2  0  0  0  0
 12 33  1  0  0  0  0
 13 14  1  0  0  0  0
 13 34  1  0  0  0  0
 14 15  2  0  0  0  0
 14 35  1  0  0  0  0
 15 16  1  0  0  0  0
 15 36  1  0  0  0  0
 17 18  1  0  0  0  0
 17 37  1  6  0  0  0
 18 19  1  0  0  0  0
 18 38  1  0  0  0  0
 18 39  1  0  0  0  0
 19 20  1  0  0  0  0
 19 40  1  1  0  0  0
 20 21  1  0  0  0  0
 20 41  1  1  0  0  0
 21 22  1  0  0  0  0
 21 42  1  0  0  0  0
 21 43  1  0  0  0  0
 22 44  1  0  0  0  0
M  END
$$$$
