CHEBI:16509
 OpenBabel04242414363D

 12 12  0  0  0  0  0  0  0  0999 V2000
   -2.6585    0.0123   -0.0060 O   0  0  0  0  0  0  0  0  0  0  0  0
   -1.4353    0.0067   -0.0035 C   0  0  0  0  0  0  0  0  0  0  0  0
   -0.6741   -1.2584   -0.0025 C   0  0  0  0  0  0  0  0  0  0  0  0
    0.6624   -1.2646    0.0010 C   0  0  0  0  0  0  0  0  0  0  0  0
    1.4353   -0.0067    0.0035 C   0  0  0  0  0  0  0  0  0  0  0  0
    2.6585   -0.0123    0.0060 O   0  0  0  0  0  0  0  0  0  0  0  0
    0.6741    1.2584    0.0025 C   0  0  0  0  0  0  0  0  0  0  0  0
   -0.6624    1.2646   -0.0010 C   0  0  0  0  0  0  0  0  0  0  0  0
   -1.2561   -2.1721   -0.0046 H   0  0  0  0  0  0  0  0  0  0  0  0
    1.2359   -2.1836    0.0021 H   0  0  0  0  0  0  0  0  0  0  0  0
    1.2561    2.1721    0.0046 H   0  0  0  0  0  0  0  0  0  0  0  0
   -1.2359    2.1836   -0.0021 H   0  0  0  0  0  0  0  0  0  0  0  0
  1  2  2  0  0  0  0
  2  3  1  0  0  0  0
  2  8  1  0  0  0  0
  3  4  2  0  0  0  0
  3  9  1  0  0  0  0
  4  5  1  0  0  0  0
  4 10  1  0  0  0  0
  5  6  2  0  0  0  0
  5  7  1  0  0  0  0
  7  8  2  0  0  0  0
  7 11  1  0  0  0  0
  8 12  1  0  0  0  0
M  END
$$$$
