CHEBI:16171
 OpenBabel04242413583D

 37 38  0  0  1  0  0  0  0  0999 V2000
    0.2559   -4.2442   -5.3481 N   0  0  0  0  0  0  0  0  0  0  0  0
    1.0642   -5.0554   -4.6065 C   0  0  0  0  0  0  0  0  0  0  0  0
    1.6096   -6.0357   -5.0976 O   0  0  0  0  0  0  0  0  0  0  0  0
    1.2677   -4.7292   -3.1802 C   0  0  0  0  0  0  0  0  0  0  0  0
    0.3841   -3.9445   -2.4447 C   0  0  0  0  0  0  0  0  0  0  0  0
    0.6176   -3.7676   -1.0869 C   0  0  0  0  0  0  0  0  0  0  0  0
    1.7156   -4.3800   -0.4891 C   0  0  0  0  0  0  0  0  0  0  0  0
    2.5819   -5.1211   -1.2192 N   0  3  0  0  0  0  0  0  0  0  0  0
    3.7555   -5.7706   -0.5799 C   0  0  2  0  0  0  0  0  0  0  0  0
    3.7983   -5.5728    0.8398 O   0  0  0  0  0  0  0  0  0  0  0  0
    5.1798   -5.4711    1.2437 C   0  0  2  0  0  0  0  0  0  0  0  0
    5.4365   -4.1804    2.0278 C   0  0  0  0  0  0  0  0  0  0  0  0
    5.4922   -3.0315    1.2082 O   0  0  0  0  0  0  0  0  0  0  0  0
    4.1155   -2.3005    0.7948 P   0  0  0  0  0  0  0  0  0  0  0  0
    3.8249   -2.5771   -0.6502 O   0  0  0  0  0  0  0  0  0  0  0  0
    3.0676   -2.5468    1.8394 O   0  5  0  0  0  0  0  0  0  0  0  0
    4.5463   -0.7718    0.9858 O   0  0  0  0  0  0  0  0  0  0  0  0
    6.0391   -5.6381   -0.0108 C   0  0  1  0  0  0  0  0  0  0  0  0
    6.4261   -7.0238   -0.1580 O   0  0  0  0  0  0  0  0  0  0  0  0
    5.0964   -5.3276   -1.1631 C   0  0  1  0  0  0  0  0  0  0  0  0
    5.4497   -6.0756   -2.3400 O   0  0  0  0  0  0  0  0  0  0  0  0
    2.3683   -5.3040   -2.5442 C   0  0  0  0  0  0  0  0  0  0  0  0
    0.1939   -4.4496   -6.3386 H   0  0  0  0  0  0  0  0  0  0  0  0
   -0.0377   -3.3237   -5.0518 H   0  0  0  0  0  0  0  0  0  0  0  0
   -0.4890   -3.4835   -2.8955 H   0  0  0  0  0  0  0  0  0  0  0  0
   -0.0356   -3.1426   -0.4827 H   0  0  0  0  0  0  0  0  0  0  0  0
    1.9149   -4.2506    0.5702 H   0  0  0  0  0  0  0  0  0  0  0  0
    3.5961   -6.8449   -0.7476 H   0  0  0  0  0  0  0  0  0  0  0  0
    5.3471   -6.3086    1.9319 H   0  0  0  0  0  0  0  0  0  0  0  0
    6.4148   -4.2578    2.5151 H   0  0  0  0  0  0  0  0  0  0  0  0
    4.6955   -4.0520    2.8227 H   0  0  0  0  0  0  0  0  0  0  0  0
    4.1172   -0.4881    1.8119 H   0  0  0  0  0  0  0  0  0  0  0  0
    6.9571   -5.0438   -0.0262 H   0  0  0  0  0  0  0  0  0  0  0  0
    7.0999   -7.2079    0.5248 H   0  0  0  0  0  0  0  0  0  0  0  0
    5.1285   -4.2718   -1.4211 H   0  0  0  0  0  0  0  0  0  0  0  0
    6.0728   -6.7694   -2.0320 H   0  0  0  0  0  0  0  0  0  0  0  0
    3.0786   -5.9251   -3.0828 H   0  0  0  0  0  0  0  0  0  0  0  0
  1  2  1  0  0  0  0
  1 23  1  0  0  0  0
  1 24  1  0  0  0  0
  2  3  2  0  0  0  0
  2  4  1  0  0  0  0
  4  5  1  0  0  0  0
  4 22  2  0  0  0  0
  5  6  2  0  0  0  0
  5 25  1  0  0  0  0
  6  7  1  0  0  0  0
  6 26  1  0  0  0  0
  7  8  2  0  0  0  0
  7 27  1  0  0  0  0
  8  9  1  0  0  0  0
  8 22  1  0  0  0  0
  9 10  1  0  0  0  0
  9 20  1  0  0  0  0
  9 28  1  6  0  0  0
 10 11  1  0  0  0  0
 11 12  1  0  0  0  0
 11 18  1  0  0  0  0
 11 29  1  1  0  0  0
 12 13  1  0  0  0  0
 12 30  1  0  0  0  0
 12 31  1  0  0  0  0
 13 14  1  0  0  0  0
 14 15  2  0  0  0  0
 14 16  1  0  0  0  0
 14 17  1  0  0  0  0
 17 32  1  0  0  0  0
 18 19  1  0  0  0  0
 18 20  1  0  0  0  0
 18 33  1  1  0  0  0
 19 34  1  0  0  0  0
 20 21  1  0  0  0  0
 20 35  1  6  0  0  0
 21 36  1  0  0  0  0
 22 37  1  0  0  0  0
M  CHG  2   8   1  16  -1
M  END
$$$$
