CHEBI:15937
 OpenBabel04242413313D

 42 43  0  0  1  0  0  0  0  0999 V2000
    6.8034    3.9045   -1.5574 O   0  0  0  0  0  0  0  0  0  0  0  0
    7.3446    3.4078   -2.5308 C   0  0  0  0  0  0  0  0  0  0  0  0
    7.7140    4.1212   -3.7682 C   0  0  0  0  0  0  0  0  0  0  0  0
    7.5279    5.4463   -3.8638 C   0  0  0  0  0  0  0  0  0  0  0  0
    7.8738    6.2452   -5.0487 C   0  0  0  0  0  0  0  0  0  0  0  0
    7.1397    7.4113   -5.3121 C   0  0  0  0  0  0  0  0  0  0  0  0
    7.4436    8.2162   -6.4146 C   0  0  0  0  0  0  0  0  0  0  0  0
    8.4934    7.8586   -7.2525 C   0  0  0  0  0  0  0  0  0  0  0  0
    8.8252    8.6118   -8.3388 O   0  0  0  0  0  0  0  0  0  0  0  0
    9.2446    6.7183   -7.0007 C   0  0  0  0  0  0  0  0  0  0  0  0
    8.9413    5.9171   -5.8966 C   0  0  0  0  0  0  0  0  0  0  0  0
    7.7349    2.1152   -2.6613 O   0  0  0  0  0  0  0  0  0  0  0  0
    7.5278    1.2620   -1.5234 C   0  0  2  0  0  0  0  0  0  0  0  0
    8.5225    1.5615   -0.3879 C   0  0  0  0  0  0  0  0  0  0  0  0
    9.9691    1.1154   -0.6508 C   0  0  2  0  0  0  0  0  0  0  0  0
   10.6839    1.1129    0.6184 O   0  0  0  0  0  0  0  0  0  0  0  0
   10.7507    2.1037   -1.5454 C   0  0  0  0  0  0  0  0  0  0  0  0
   10.4263    2.4740   -2.6616 O   0  0  0  0  0  0  0  0  0  0  0  0
   11.9098    2.4992   -0.9562 O   0  0  0  0  0  0  0  0  0  0  0  0
   10.0716   -0.2946   -1.2304 C   0  0  0  0  0  0  0  0  0  0  0  0
    9.1082   -0.5258   -2.3943 C   0  0  1  0  0  0  0  0  0  0  0  0
    9.1697   -1.9163   -2.7407 O   0  0  0  0  0  0  0  0  0  0  0  0
    7.6598   -0.1897   -2.0016 C   0  0  1  0  0  0  0  0  0  0  0  0
    7.2383   -1.0822   -0.9625 O   0  0  0  0  0  0  0  0  0  0  0  0
    8.1449    3.5260   -4.5632 H   0  0  0  0  0  0  0  0  0  0  0  0
    7.0849    5.9935   -3.0331 H   0  0  0  0  0  0  0  0  0  0  0  0
    6.3166    7.7011   -4.6621 H   0  0  0  0  0  0  0  0  0  0  0  0
    6.8549    9.1092   -6.5976 H   0  0  0  0  0  0  0  0  0  0  0  0
    8.2302    9.3782   -8.3780 H   0  0  0  0  0  0  0  0  0  0  0  0
   10.0705    6.4553   -7.6556 H   0  0  0  0  0  0  0  0  0  0  0  0
    9.5613    5.0444   -5.7057 H   0  0  0  0  0  0  0  0  0  0  0  0
    6.5072    1.4115   -1.1463 H   0  0  0  0  0  0  0  0  0  0  0  0
    8.1633    1.0555    0.5191 H   0  0  0  0  0  0  0  0  0  0  0  0
    8.5210    2.6311   -0.1470 H   0  0  0  0  0  0  0  0  0  0  0  0
   10.2083    1.7061    1.2330 H   0  0  0  0  0  0  0  0  0  0  0  0
   11.9884    2.0132   -0.1001 H   0  0  0  0  0  0  0  0  0  0  0  0
    9.8904   -1.0368   -0.4406 H   0  0  0  0  0  0  0  0  0  0  0  0
   11.0980   -0.5044   -1.5614 H   0  0  0  0  0  0  0  0  0  0  0  0
    9.4222    0.0536   -3.2693 H   0  0  0  0  0  0  0  0  0  0  0  0
    8.7893   -2.0100   -3.6333 H   0  0  0  0  0  0  0  0  0  0  0  0
    7.0052   -0.3702   -2.8624 H   0  0  0  0  0  0  0  0  0  0  0  0
    7.6041   -1.9588   -1.2013 H   0  0  0  0  0  0  0  0  0  0  0  0
  1  2  2  0  0  0  0
  2  3  1  0  0  0  0
  2 12  1  0  0  0  0
  3  4  2  0  0  0  0
  3 25  1  0  0  0  0
  4  5  1  0  0  0  0
  4 26  1  0  0  0  0
  5  6  1  0  0  0  0
  5 11  2  0  0  0  0
  6  7  2  0  0  0  0
  6 27  1  0  0  0  0
  7  8  1  0  0  0  0
  7 28  1  0  0  0  0
  8  9  1  0  0  0  0
  8 10  2  0  0  0  0
  9 29  1  0  0  0  0
 10 11  1  0  0  0  0
 10 30  1  0  0  0  0
 11 31  1  0  0  0  0
 12 13  1  0  0  0  0
 13 14  1  0  0  0  0
 13 23  1  0  0  0  0
 13 32  1  1  0  0  0
 14 15  1  0  0  0  0
 14 33  1  0  0  0  0
 14 34  1  0  0  0  0
 15 20  1  0  0  0  0
 15 17  1  6  0  0  0
 15 16  1  0  0  0  0
 16 35  1  0  0  0  0
 17 18  2  0  0  0  0
 17 19  1  0  0  0  0
 19 36  1  0  0  0  0
 20 21  1  0  0  0  0
 20 37  1  0  0  0  0
 20 38  1  0  0  0  0
 21 22  1  0  0  0  0
 21 23  1  0  0  0  0
 21 39  1  6  0  0  0
 22 40  1  0  0  0  0
 23 24  1  0  0  0  0
 23 41  1  6  0  0  0
 24 42  1  0  0  0  0
M  END
$$$$
