CHEBI:16858
 OpenBabel04242415263D

 45 44  0  0  0  0  0  0  0  0999 V2000
    3.1581   -1.7528   -1.0162 C   0  0  0  0  0  0  0  0  0  0  0  0
    2.8207   -0.2883   -0.6728 C   0  0  0  0  0  0  0  0  0  0  0  0
    1.6775    0.1589   -1.6141 C   0  0  0  0  0  0  0  0  0  0  0  0
    2.3160   -0.2353    0.7886 C   0  0  0  0  0  0  0  0  0  0  0  0
    2.0784    1.1062    1.2030 O   0  0  0  0  0  0  0  0  0  0  0  0
    1.1775    1.2998    2.5145 P   0  0  0  0  0  0  0  0  0  0  0  0
    1.0969    0.1612    3.4683 O   0  0  0  0  0  0  0  0  0  0  0  0
    1.6364    2.6947    3.1291 O   0  0  0  0  0  0  0  0  0  0  0  0
   -0.2619    1.6896    1.9461 O   0  0  0  0  0  0  0  0  0  0  0  0
    4.0461    0.6471   -0.9036 C   0  0  0  0  0  0  0  0  0  0  0  0
    3.6879    2.0272   -0.7121 O   0  0  0  0  0  0  0  0  0  0  0  0
    5.2768    0.2900   -0.0373 C   0  0  0  0  0  0  0  0  0  0  0  0
    5.8911   -0.7664   -0.1472 O   0  0  0  0  0  0  0  0  0  0  0  0
    5.6312    1.2782    0.8571 N   0  0  0  0  0  0  0  0  0  0  0  0
    6.8345    1.1911    1.6643 C   0  0  0  0  0  0  0  0  0  0  0  0
    8.0665    1.6195    0.8774 C   0  0  0  0  0  0  0  0  0  0  0  0
    9.3181    1.5332    1.7203 C   0  0  0  0  0  0  0  0  0  0  0  0
    9.3137    1.3299    2.9292 O   0  0  0  0  0  0  0  0  0  0  0  0
   10.4729    1.7412    0.9965 N   0  0  0  0  0  0  0  0  0  0  0  0
   11.7851    1.6643    1.6161 C   0  0  0  0  0  0  0  0  0  0  0  0
   12.2721    0.2315    1.8431 C   0  0  0  0  0  0  0  0  0  0  0  0
   12.4858   -0.6656    0.2706 S   0  0  0  0  0  0  0  0  0  0  0  0
    2.2565   -2.3766   -1.0111 H   0  0  0  0  0  0  0  0  0  0  0  0
    3.8484   -2.1940   -0.2905 H   0  0  0  0  0  0  0  0  0  0  0  0
    3.6119   -1.8329   -2.0100 H   0  0  0  0  0  0  0  0  0  0  0  0
    0.8022   -0.4928   -1.5097 H   0  0  0  0  0  0  0  0  0  0  0  0
    1.9965    0.1150   -2.6620 H   0  0  0  0  0  0  0  0  0  0  0  0
    1.3476    1.1822   -1.4080 H   0  0  0  0  0  0  0  0  0  0  0  0
    3.0551   -0.6683    1.4716 H   0  0  0  0  0  0  0  0  0  0  0  0
    1.3896   -0.8148    0.8867 H   0  0  0  0  0  0  0  0  0  0  0  0
    1.4342    3.4368    2.5333 H   0  0  0  0  0  0  0  0  0  0  0  0
   -0.9540    1.2951    2.5118 H   0  0  0  0  0  0  0  0  0  0  0  0
    4.3816    0.5707   -1.9453 H   0  0  0  0  0  0  0  0  0  0  0  0
    3.0823    2.0403    0.0566 H   0  0  0  0  0  0  0  0  0  0  0  0
    5.2008    2.1857    0.7043 H   0  0  0  0  0  0  0  0  0  0  0  0
    6.9479    0.1603    2.0200 H   0  0  0  0  0  0  0  0  0  0  0  0
    6.6829    1.8339    2.5378 H   0  0  0  0  0  0  0  0  0  0  0  0
    7.9519    2.6561    0.5381 H   0  0  0  0  0  0  0  0  0  0  0  0
    8.1911    0.9889   -0.0105 H   0  0  0  0  0  0  0  0  0  0  0  0
   10.4249    1.7910   -0.0139 H   0  0  0  0  0  0  0  0  0  0  0  0
   11.7378    2.1826    2.5808 H   0  0  0  0  0  0  0  0  0  0  0  0
   12.4811    2.2195    0.9775 H   0  0  0  0  0  0  0  0  0  0  0  0
   11.5687   -0.3304    2.4653 H   0  0  0  0  0  0  0  0  0  0  0  0
   13.2387    0.2503    2.3559 H   0  0  0  0  0  0  0  0  0  0  0  0
   11.1795   -0.7624   -0.0175 H   0  0  0  0  0  0  0  0  0  0  0  0
  1  2  1  0  0  0  0
  1 23  1  0  0  0  0
  1 24  1  0  0  0  0
  1 25  1  0  0  0  0
  2  3  1  0  0  0  0
  2  4  1  0  0  0  0
  2 10  1  0  0  0  0
  3 26  1  0  0  0  0
  3 27  1  0  0  0  0
  3 28  1  0  0  0  0
  4  5  1  0  0  0  0
  4 29  1  0  0  0  0
  4 30  1  0  0  0  0
  5  6  1  0  0  0  0
  6  7  2  0  0  0  0
  6  8  1  0  0  0  0
  6  9  1  0  0  0  0
  8 31  1  0  0  0  0
  9 32  1  0  0  0  0
 10 11  1  0  0  0  0
 10 12  1  0  0  0  0
 10 33  1  0  0  0  0
 11 34  1  0  0  0  0
 12 13  2  0  0  0  0
 12 14  1  0  0  0  0
 14 15  1  0  0  0  0
 14 35  1  0  0  0  0
 15 16  1  0  0  0  0
 15 36  1  0  0  0  0
 15 37  1  0  0  0  0
 16 17  1  0  0  0  0
 16 38  1  0  0  0  0
 16 39  1  0  0  0  0
 17 18  2  0  0  0  0
 17 19  1  0  0  0  0
 19 20  1  0  0  0  0
 19 40  1  0  0  0  0
 20 21  1  0  0  0  0
 20 41  1  0  0  0  0
 20 42  1  0  0  0  0
 21 22  1  0  0  0  0
 21 43  1  0  0  0  0
 21 44  1  0  0  0  0
 22 45  1  0  0  0  0
M  END
$$$$
