CHEBI:18123
 OpenBabel04242423343D

 17 17  0  0  0  0  0  0  0  0999 V2000
   -2.3927    0.0320    0.0181 C   0  0  0  0  0  0  0  0  0  0  0  0
   -0.9267    0.0033    0.0193 N   0  3  0  0  0  0  0  0  0  0  0  0
   -0.2551   -1.1683    0.0488 C   0  0  0  0  0  0  0  0  0  0  0  0
    1.1335   -1.1903    0.0528 C   0  0  0  0  0  0  0  0  0  0  0  0
    1.8268    0.0118    0.0273 C   0  0  0  0  0  0  0  0  0  0  0  0
    1.1229    1.2168   -0.0015 C   0  0  0  0  0  0  0  0  0  0  0  0
    1.7977    2.5511   -0.0290 C   0  0  0  0  0  0  0  0  0  0  0  0
    1.0158    3.5470   -0.0609 O   0  0  0  0  0  0  0  0  0  0  0  0
    3.0597    2.5530   -0.0173 O   0  5  0  0  0  0  0  0  0  0  0  0
   -0.2638    1.1798   -0.0044 C   0  0  0  0  0  0  0  0  0  0  0  0
   -2.7872   -0.9858   -0.0296 H   0  0  0  0  0  0  0  0  0  0  0  0
   -2.7212    0.5962   -0.8590 H   0  0  0  0  0  0  0  0  0  0  0  0
   -2.7196    0.5166    0.9419 H   0  0  0  0  0  0  0  0  0  0  0  0
   -0.8366   -2.0839    0.0695 H   0  0  0  0  0  0  0  0  0  0  0  0
    1.6766   -2.1308    0.0761 H   0  0  0  0  0  0  0  0  0  0  0  0
    2.9176    0.0288    0.0300 H   0  0  0  0  0  0  0  0  0  0  0  0
   -0.8599    2.0900   -0.0252 H   0  0  0  0  0  0  0  0  0  0  0  0
  1  2  1  0  0  0  0
  1 11  1  0  0  0  0
  1 12  1  0  0  0  0
  1 13  1  0  0  0  0
  2  3  1  0  0  0  0
  2 10  2  0  0  0  0
  3  4  2  0  0  0  0
  3 14  1  0  0  0  0
  4  5  1  0  0  0  0
  4 15  1  0  0  0  0
  5  6  2  0  0  0  0
  5 16  1  0  0  0  0
  6  7  1  0  0  0  0
  6 10  1  0  0  0  0
  7  8  2  0  0  0  0
  7  9  1  0  0  0  0
 10 17  1  0  0  0  0
M  CHG  2   2   1   9  -1
M  END
$$$$
