CHEBI:16584
 OpenBabel04242414483D

 26 25  0  0  0  0  0  0  0  0999 V2000
    0.9179   -0.4919   -2.5483 C   0  0  0  0  0  0  0  0  0  0  0  0
    1.5803    0.6115   -2.1638 C   0  0  0  0  0  0  0  0  0  0  0  0
    1.2061    1.9743   -2.6764 C   0  0  0  0  0  0  0  0  0  0  0  0
    2.7202    0.5511   -1.1693 C   0  0  0  0  0  0  0  0  0  0  0  0
    4.0841    0.3250   -1.8232 C   0  0  0  0  0  0  0  0  0  0  0  0
    4.4500    1.4466   -2.6104 O   0  0  0  0  0  0  0  0  0  0  0  0
    5.8921    1.4559   -3.3010 P   0  0  0  0  0  0  0  0  0  0  0  0
    6.1475    2.5930   -4.2397 O   0  0  0  0  0  0  0  0  0  0  0  0
    6.9009    1.5040   -2.0559 O   0  0  0  0  0  0  0  0  0  0  0  0
    6.1535    0.0285   -3.9409 O   0  0  0  0  0  0  0  0  0  0  0  0
    5.6191   -0.2901   -5.3991 P   0  0  0  0  0  0  0  0  0  0  0  0
    4.1548   -0.1804   -5.6334 O   0  0  0  0  0  0  0  0  0  0  0  0
    6.5187    0.6079   -6.3639 O   0  0  0  0  0  0  0  0  0  0  0  0
    6.1997   -1.7486   -5.6997 O   0  0  0  0  0  0  0  0  0  0  0  0
    0.0994   -0.4418   -3.2607 H   0  0  0  0  0  0  0  0  0  0  0  0
    1.1846   -1.4762   -2.1765 H   0  0  0  0  0  0  0  0  0  0  0  0
    0.3558    1.9343   -3.3655 H   0  0  0  0  0  0  0  0  0  0  0  0
    2.0434    2.4334   -3.2097 H   0  0  0  0  0  0  0  0  0  0  0  0
    0.9241    2.6266   -1.8432 H   0  0  0  0  0  0  0  0  0  0  0  0
    2.5354   -0.2620   -0.4558 H   0  0  0  0  0  0  0  0  0  0  0  0
    2.7357    1.4789   -0.5842 H   0  0  0  0  0  0  0  0  0  0  0  0
    4.0648   -0.5711   -2.4528 H   0  0  0  0  0  0  0  0  0  0  0  0
    4.8364    0.1792   -1.0409 H   0  0  0  0  0  0  0  0  0  0  0  0
    7.4770    2.2885   -2.1203 H   0  0  0  0  0  0  0  0  0  0  0  0
    6.2835    1.5583   -6.3078 H   0  0  0  0  0  0  0  0  0  0  0  0
    5.8522   -2.0943   -6.5409 H   0  0  0  0  0  0  0  0  0  0  0  0
  1  2  2  0  0  0  0
  1 15  1  0  0  0  0
  1 16  1  0  0  0  0
  2  3  1  0  0  0  0
  2  4  1  0  0  0  0
  3 17  1  0  0  0  0
  3 18  1  0  0  0  0
  3 19  1  0  0  0  0
  4  5  1  0  0  0  0
  4 20  1  0  0  0  0
  4 21  1  0  0  0  0
  5  6  1  0  0  0  0
  5 22  1  0  0  0  0
  5 23  1  0  0  0  0
  6  7  1  0  0  0  0
  7  8  2  0  0  0  0
  7  9  1  0  0  0  0
  7 10  1  0  0  0  0
  9 24  1  0  0  0  0
 10 11  1  0  0  0  0
 11 12  2  0  0  0  0
 11 13  1  0  0  0  0
 11 14  1  0  0  0  0
 13 25  1  0  0  0  0
 14 26  1  0  0  0  0
M  END
$$$$
