CHEBI:15671
 OpenBabel04242413033D

 16 15  0  0  1  0  0  0  0  0999 V2000
    1.1971   -1.6432    0.9810 O   0  0  0  0  0  0  0  0  0  0  0  0
    1.3200   -0.4276    1.0693 C   0  0  0  0  0  0  0  0  0  0  0  0
    0.3448    0.4569    0.7654 O   0  0  0  0  0  0  0  0  0  0  0  0
    2.6015    0.2477    1.5188 C   0  0  2  0  0  0  0  0  0  0  0  0
    2.4994    1.6429    1.1546 O   0  0  0  0  0  0  0  0  0  0  0  0
    3.7698   -0.4215    0.7955 C   0  0  1  0  0  0  0  0  0  0  0  0
    4.8013    0.5815    0.6571 O   0  0  0  0  0  0  0  0  0  0  0  0
    4.2945   -1.6188    1.5874 C   0  0  0  0  0  0  0  0  0  0  0  0
    5.4379   -1.6411    2.0301 O   0  0  0  0  0  0  0  0  0  0  0  0
    3.4528   -2.6616    1.7193 O   0  0  0  0  0  0  0  0  0  0  0  0
    0.7241    1.3665    0.8640 H   0  0  0  0  0  0  0  0  0  0  0  0
    2.6798    0.1950    2.6089 H   0  0  0  0  0  0  0  0  0  0  0  0
    3.4056    1.8839    0.8501 H   0  0  0  0  0  0  0  0  0  0  0  0
    3.5229   -0.7502   -0.2195 H   0  0  0  0  0  0  0  0  0  0  0  0
    5.6471    0.1331    0.8812 H   0  0  0  0  0  0  0  0  0  0  0  0
    2.5524   -2.5757    1.3157 H   0  0  0  0  0  0  0  0  0  0  0  0
  1  2  2  0  0  0  0
  2  3  1  0  0  0  0
  3 11  1  0  0  0  0
  4  6  1  0  0  0  0
  4  5  1  0  0  0  0
  4  2  1  0  0  0  0
  4 12  1  1  0  0  0
  5 13  1  0  0  0  0
  6  7  1  0  0  0  0
  6  8  1  0  0  0  0
  6 14  1  6  0  0  0
  7 15  1  0  0  0  0
  8  9  2  0  0  0  0
  8 10  1  0  0  0  0
 10 16  1  0  0  0  0
M  END
$$$$
