CHEBI:15553
 OpenBabel04242412463D

 59 59  0  0  1  0  0  0  0  0999 V2000
    2.0910   -1.1310    5.1369 C   0  0  0  0  0  0  0  0  0  0  0  0
    1.8125   -2.6262    5.1670 C   0  0  0  0  0  0  0  0  0  0  0  0
    2.8896   -3.4274    5.9018 C   0  0  0  0  0  0  0  0  0  0  0  0
    2.9379   -3.1299    7.4020 C   0  0  0  0  0  0  0  0  0  0  0  0
    3.9366   -4.0150    8.1532 C   0  0  0  0  0  0  0  0  0  0  0  0
    5.4093   -3.7922    7.7894 C   0  0  2  0  0  0  0  0  0  0  0  0
    6.1961   -4.6901    8.5727 O   0  0  0  0  0  0  0  0  0  0  0  0
    5.8900   -2.3872    8.0378 C   0  0  0  0  0  0  0  0  0  0  0  0
    6.1061   -1.8652    9.2572 C   0  0  0  0  0  0  0  0  0  0  0  0
    6.6016   -0.4585    9.5104 C   0  0  2  0  0  0  0  0  0  0  0  0
    7.9954   -0.5140   10.1899 C   0  0  1  0  0  0  0  0  0  0  0  0
    8.9858    0.5218    9.6120 C   0  0  0  0  0  0  0  0  0  0  0  0
    9.3176    0.2787    8.1622 C   0  0  0  0  0  0  0  0  0  0  0  0
    9.7314    1.1989    7.2749 C   0  0  0  0  0  0  0  0  0  0  0  0
    9.9616    2.6617    7.5382 C   0  0  0  0  0  0  0  0  0  0  0  0
    9.6321    3.5202    6.3148 C   0  0  0  0  0  0  0  0  0  0  0  0
    9.8954    4.9973    6.5943 C   0  0  0  0  0  0  0  0  0  0  0  0
    9.6318    5.8245    5.3679 C   0  0  0  0  0  0  0  0  0  0  0  0
    8.6193    5.8139    4.6895 O   0  0  0  0  0  0  0  0  0  0  0  0
   10.6584    6.6383    5.0587 O   0  0  0  0  0  0  0  0  0  0  0  0
    7.6757   -0.2705   11.6737 C   0  0  1  0  0  0  0  0  0  0  0  0
    8.7840    0.1812   12.4246 O   0  0  0  0  0  0  0  0  0  0  0  0
    6.5782    0.7774   11.6369 C   0  0  0  0  0  0  0  0  0  0  0  0
    5.6783    0.2915   10.5083 C   0  0  1  0  0  0  0  0  0  0  0  0
    5.0047    1.3822    9.8942 O   0  0  0  0  0  0  0  0  0  0  0  0
    1.3456   -0.6224    4.5174 H   0  0  0  0  0  0  0  0  0  0  0  0
    3.0800   -0.9242    4.7157 H   0  0  0  0  0  0  0  0  0  0  0  0
    2.0431   -0.6930    6.1381 H   0  0  0  0  0  0  0  0  0  0  0  0
    1.7532   -2.9900    4.1343 H   0  0  0  0  0  0  0  0  0  0  0  0
    0.8327   -2.8073    5.6239 H   0  0  0  0  0  0  0  0  0  0  0  0
    3.8629   -3.2269    5.4404 H   0  0  0  0  0  0  0  0  0  0  0  0
    2.6831   -4.4952    5.7574 H   0  0  0  0  0  0  0  0  0  0  0  0
    1.9423   -3.2996    7.8303 H   0  0  0  0  0  0  0  0  0  0  0  0
    3.1751   -2.0754    7.5772 H   0  0  0  0  0  0  0  0  0  0  0  0
    3.6860   -5.0718    7.9919 H   0  0  0  0  0  0  0  0  0  0  0  0
    3.8027   -3.8565    9.2321 H   0  0  0  0  0  0  0  0  0  0  0  0
    5.5879   -4.0549    6.7415 H   0  0  0  0  0  0  0  0  0  0  0  0
    7.1263   -4.4608    8.4085 H   0  0  0  0  0  0  0  0  0  0  0  0
    6.0523   -1.7758    7.1525 H   0  0  0  0  0  0  0  0  0  0  0  0
    5.9184   -2.4904   10.1307 H   0  0  0  0  0  0  0  0  0  0  0  0
    6.6398    0.0837    8.5580 H   0  0  0  0  0  0  0  0  0  0  0  0
    8.4636   -1.5027   10.0862 H   0  0  0  0  0  0  0  0  0  0  0  0
    9.9265    0.4598   10.1725 H   0  0  0  0  0  0  0  0  0  0  0  0
    8.5858    1.5303    9.7525 H   0  0  0  0  0  0  0  0  0  0  0  0
    9.2525   -0.7536    7.8188 H   0  0  0  0  0  0  0  0  0  0  0  0
    9.9739    0.8519    6.2703 H   0  0  0  0  0  0  0  0  0  0  0  0
   11.0175    2.7998    7.7998 H   0  0  0  0  0  0  0  0  0  0  0  0
    9.3652    3.0125    8.3863 H   0  0  0  0  0  0  0  0  0  0  0  0
    8.5835    3.3758    6.0249 H   0  0  0  0  0  0  0  0  0  0  0  0
   10.2392    3.1994    5.4579 H   0  0  0  0  0  0  0  0  0  0  0  0
   10.9372    5.1360    6.9067 H   0  0  0  0  0  0  0  0  0  0  0  0
    9.2569    5.3721    7.4014 H   0  0  0  0  0  0  0  0  0  0  0  0
   10.3550    7.1110    4.2553 H   0  0  0  0  0  0  0  0  0  0  0  0
    7.2938   -1.1890   12.1370 H   0  0  0  0  0  0  0  0  0  0  0  0
    9.4304   -0.5457   12.4611 H   0  0  0  0  0  0  0  0  0  0  0  0
    6.9755    1.7825   11.4508 H   0  0  0  0  0  0  0  0  0  0  0  0
    6.0419    0.8380   12.5902 H   0  0  0  0  0  0  0  0  0  0  0  0
    4.9058   -0.3721   10.9147 H   0  0  0  0  0  0  0  0  0  0  0  0
    5.6721    1.9965    9.5432 H   0  0  0  0  0  0  0  0  0  0  0  0
  1  2  1  0  0  0  0
  1 26  1  0  0  0  0
  1 27  1  0  0  0  0
  1 28  1  0  0  0  0
  2  3  1  0  0  0  0
  2 29  1  0  0  0  0
  2 30  1  0  0  0  0
  3  4  1  0  0  0  0
  3 31  1  0  0  0  0
  3 32  1  0  0  0  0
  4  5  1  0  0  0  0
  4 33  1  0  0  0  0
  4 34  1  0  0  0  0
  5 35  1  0  0  0  0
  5 36  1  0  0  0  0
  6  8  1  0  0  0  0
  6  7  1  0  0  0  0
  6  5  1  0  0  0  0
  6 37  1  6  0  0  0
  7 38  1  0  0  0  0
  8  9  2  0  0  0  0
  8 39  1  0  0  0  0
  9 10  1  0  0  0  0
  9 40  1  0  0  0  0
 10 11  1  0  0  0  0
 10 24  1  0  0  0  0
 10 41  1  6  0  0  0
 11 12  1  0  0  0  0
 11 21  1  0  0  0  0
 11 42  1  6  0  0  0
 12 13  1  0  0  0  0
 12 43  1  0  0  0  0
 12 44  1  0  0  0  0
 13 14  2  0  0  0  0
 13 45  1  0  0  0  0
 14 15  1  0  0  0  0
 14 46  1  0  0  0  0
 15 16  1  0  0  0  0
 15 47  1  0  0  0  0
 15 48  1  0  0  0  0
 16 17  1  0  0  0  0
 16 49  1  0  0  0  0
 16 50  1  0  0  0  0
 17 18  1  0  0  0  0
 17 51  1  0  0  0  0
 17 52  1  0  0  0  0
 18 19  2  0  0  0  0
 18 20  1  0  0  0  0
 20 53  1  0  0  0  0
 21 22  1  0  0  0  0
 21 23  1  0  0  0  0
 21 54  1  1  0  0  0
 22 55  1  0  0  0  0
 23 24  1  0  0  0  0
 23 56  1  0  0  0  0
 23 57  1  0  0  0  0
 24 25  1  0  0  0  0
 24 58  1  1  0  0  0
 25 59  1  0  0  0  0
M  END
$$$$
