CHEBI:27391
 OpenBabel04252409453D

 16 16  0  0  0  0  0  0  0  0999 V2000
    2.0296   -0.3285    1.8722 O   0  0  0  0  0  0  0  0  0  0  0  0
    2.4876    0.1474    0.8463 C   0  0  0  0  0  0  0  0  0  0  0  0
    1.9323   -0.0440   -0.3779 O   0  0  0  0  0  0  0  0  0  0  0  0
    3.7472    1.0098    0.7597 C   0  0  0  0  0  0  0  0  0  0  0  0
    3.8327    2.0691    1.8462 C   0  0  0  0  0  0  0  0  0  0  0  0
    3.1520    3.2665    1.2201 C   0  0  0  0  0  0  0  0  0  0  0  0
    3.7227    4.4872    1.6274 O   0  0  0  0  0  0  0  0  0  0  0  0
    3.3885    2.9632   -0.2327 C   0  0  0  0  0  0  0  0  0  0  0  0
    3.7192    1.7470   -0.5510 N   0  0  0  0  0  0  0  0  0  0  0  0
    2.4802    0.4562   -1.0312 H   0  0  0  0  0  0  0  0  0  0  0  0
    4.6149    0.3423    0.7804 H   0  0  0  0  0  0  0  0  0  0  0  0
    4.8834    2.2906    2.0720 H   0  0  0  0  0  0  0  0  0  0  0  0
    3.3576    1.7780    2.7883 H   0  0  0  0  0  0  0  0  0  0  0  0
    2.0737    3.2894    1.4036 H   0  0  0  0  0  0  0  0  0  0  0  0
    4.6923    4.4166    1.5819 H   0  0  0  0  0  0  0  0  0  0  0  0
    3.2362    3.7501   -0.9868 H   0  0  0  0  0  0  0  0  0  0  0  0
  1  2  2  0  0  0  0
  2  3  1  0  0  0  0
  2  4  1  0  0  0  0
  3 10  1  0  0  0  0
  4  5  1  0  0  0  0
  4  9  1  0  0  0  0
  4 11  1  0  0  0  0
  5  6  1  0  0  0  0
  5 12  1  0  0  0  0
  5 13  1  0  0  0  0
  6  7  1  0  0  0  0
  6  8  1  0  0  0  0
  6 14  1  0  0  0  0
  7 15  1  0  0  0  0
  8  9  2  0  0  0  0
  8 16  1  0  0  0  0
M  END
$$$$
