CHEBI:15362
 OpenBabel04242411453D

 16 15  0  0  0  0  0  0  0  0999 V2000
    1.9482   -2.2419    0.3077 C   0  0  0  0  0  0  0  0  0  0  0  0
    1.5008   -1.1960   -0.6777 C   0  0  0  0  0  0  0  0  0  0  0  0
    0.6622   -1.4498   -1.5483 O   0  0  0  0  0  0  0  0  0  0  0  0
    2.1567    0.1768   -0.5531 C   0  0  0  0  0  0  0  0  0  0  0  0
    1.5146    1.1332   -1.3649 O   0  0  0  0  0  0  0  0  0  0  0  0
    1.8522    1.1871   -2.9272 P   0  0  0  0  0  0  0  0  0  0  0  0
    0.9452    2.0017   -3.7792 O   0  0  0  0  0  0  0  0  0  0  0  0
    3.3632    1.7106   -2.9445 O   0  0  0  0  0  0  0  0  0  0  0  0
    2.0423   -0.3251   -3.3937 O   0  0  0  0  0  0  0  0  0  0  0  0
    1.4616   -3.1944    0.0801 H   0  0  0  0  0  0  0  0  0  0  0  0
    1.6703   -1.9341    1.3186 H   0  0  0  0  0  0  0  0  0  0  0  0
    3.0306   -2.3736    0.2366 H   0  0  0  0  0  0  0  0  0  0  0  0
    3.2170    0.0955   -0.8109 H   0  0  0  0  0  0  0  0  0  0  0  0
    2.0688    0.5077    0.4858 H   0  0  0  0  0  0  0  0  0  0  0  0
    3.5785    2.0523   -3.8315 H   0  0  0  0  0  0  0  0  0  0  0  0
    1.2125   -0.8352   -3.2484 H   0  0  0  0  0  0  0  0  0  0  0  0
  1  2  1  0  0  0  0
  1 10  1  0  0  0  0
  1 11  1  0  0  0  0
  1 12  1  0  0  0  0
  2  3  2  0  0  0  0
  2  4  1  0  0  0  0
  4  5  1  0  0  0  0
  4 13  1  0  0  0  0
  4 14  1  0  0  0  0
  5  6  1  0  0  0  0
  6  7  2  0  0  0  0
  6  8  1  0  0  0  0
  6  9  1  0  0  0  0
  8 15  1  0  0  0  0
  9 16  1  0  0  0  0
M  END
$$$$
