CHEBI:15421
 OpenBabel04242411513D

 25 25  0  0  0  0  0  0  0  0999 V2000
    1.3279   -3.3026   -0.9871 C   0  0  0  0  0  0  0  0  0  0  0  0
    1.2354   -1.9886   -0.7179 C   0  0  0  0  0  0  0  0  0  0  0  0
    0.0389   -1.4622    0.0367 C   0  0  0  0  0  0  0  0  0  0  0  0
    2.2861   -0.9382   -1.0916 C   0  0  0  0  0  0  0  0  0  0  0  0
    3.7267   -1.4648   -1.3148 C   0  0  0  0  0  0  0  0  0  0  0  0
    4.0180   -1.9357   -2.7152 C   0  0  0  0  0  0  0  0  0  0  0  0
    3.1913   -1.6939   -3.7462 C   0  0  0  0  0  0  0  0  0  0  0  0
    3.5450   -2.2291   -5.0853 C   0  0  0  0  0  0  0  0  0  0  0  0
    2.8448   -2.0523   -6.0742 O   0  0  0  0  0  0  0  0  0  0  0  0
    1.9243   -0.8974   -3.6232 C   0  0  0  0  0  0  0  0  0  0  0  0
    1.8514   -0.1051   -2.3124 C   0  0  0  0  0  0  0  0  0  0  0  0
    0.5491   -3.9981   -0.6860 H   0  0  0  0  0  0  0  0  0  0  0  0
    2.1649   -3.7343   -1.5240 H   0  0  0  0  0  0  0  0  0  0  0  0
   -0.6695   -2.2570    0.2946 H   0  0  0  0  0  0  0  0  0  0  0  0
   -0.5021   -0.7216   -0.5595 H   0  0  0  0  0  0  0  0  0  0  0  0
    0.3592   -0.9915    0.9720 H   0  0  0  0  0  0  0  0  0  0  0  0
    2.3510   -0.2594   -0.2288 H   0  0  0  0  0  0  0  0  0  0  0  0
    3.9539   -2.2678   -0.6035 H   0  0  0  0  0  0  0  0  0  0  0  0
    4.4342   -0.6544   -1.0944 H   0  0  0  0  0  0  0  0  0  0  0  0
    4.9388   -2.4980   -2.8489 H   0  0  0  0  0  0  0  0  0  0  0  0
    4.4838   -2.8057   -5.1407 H   0  0  0  0  0  0  0  0  0  0  0  0
    1.0672   -1.5777   -3.6953 H   0  0  0  0  0  0  0  0  0  0  0  0
    1.8411   -0.1881   -4.4554 H   0  0  0  0  0  0  0  0  0  0  0  0
    0.8391    0.2951   -2.1842 H   0  0  0  0  0  0  0  0  0  0  0  0
    2.5134    0.7684   -2.3917 H   0  0  0  0  0  0  0  0  0  0  0  0
  1  2  2  0  0  0  0
  1 12  1  0  0  0  0
  1 13  1  0  0  0  0
  2  3  1  0  0  0  0
  2  4  1  0  0  0  0
  3 14  1  0  0  0  0
  3 15  1  0  0  0  0
  3 16  1  0  0  0  0
  4  5  1  0  0  0  0
  4 11  1  0  0  0  0
  4 17  1  0  0  0  0
  5  6  1  0  0  0  0
  5 18  1  0  0  0  0
  5 19  1  0  0  0  0
  6  7  2  0  0  0  0
  6 20  1  0  0  0  0
  7  8  1  0  0  0  0
  7 10  1  0  0  0  0
  8  9  2  0  0  0  0
  8 21  1  0  0  0  0
 10 11  1  0  0  0  0
 10 22  1  0  0  0  0
 10 23  1  0  0  0  0
 11 24  1  0  0  0  0
 11 25  1  0  0  0  0
M  END
$$$$
