CHEBI:2719
 OpenBabel04242410403D

146149  0  0  1  0  0  0  0  0999 V2000
    0.0458   16.5803    3.3648 C   0  0  0  0  0  0  0  0  0  0  0  0
    0.0510   16.6383    4.8939 C   0  0  0  0  0  0  0  0  0  0  0  0
   -1.3271   16.2934    5.5045 C   0  0  2  0  0  0  0  0  0  0  0  0
   -2.3190   17.4092    5.0799 C   0  0  0  0  0  0  0  0  0  0  0  0
   -1.3606   16.0684    7.0607 C   0  0  2  0  0  0  0  0  0  0  0  0
   -0.0135   15.7670    7.6768 N   0  0  0  0  0  0  0  0  0  0  0  0
    0.7054   14.7429    8.2528 C   0  0  0  0  0  0  0  0  0  0  0  0
    1.9053   14.9872    8.4416 O   0  0  0  0  0  0  0  0  0  0  0  0
    0.0635   13.4855    8.9026 C   0  0  2  0  0  0  0  0  0  0  0  0
    0.9698   12.4173    9.6060 C   0  0  0  0  0  0  0  0  0  0  0  0
    1.6122   11.2126    8.9142 C   0  0  0  0  0  0  0  0  0  0  0  0
    2.9583   10.9084    9.1740 C   0  0  0  0  0  0  0  0  0  0  0  0
    3.5907    9.8057    8.5785 C   0  0  0  0  0  0  0  0  0  0  0  0
    2.8880    9.0052    7.6882 C   0  0  0  0  0  0  0  0  0  0  0  0
    3.4737    7.9592    7.0401 O   0  0  0  0  0  0  0  0  0  0  0  0
    1.5453    9.2401    7.4565 C   0  0  0  0  0  0  0  0  0  0  0  0
    0.9048   10.2914    8.1236 C   0  0  0  0  0  0  0  0  0  0  0  0
   -0.9386   12.8987    8.0783 N   0  0  0  0  0  0  0  0  0  0  0  0
   -0.6354   12.4665    6.8184 C   0  0  0  0  0  0  0  0  0  0  0  0
    0.4825   12.5610    6.3235 O   0  0  0  0  0  0  0  0  0  0  0  0
   -1.8148   11.8328    6.0879 C   0  0  1  0  0  0  0  0  0  0  0  0
   -3.0230   12.0991    6.9067 N   0  0  0  0  0  0  0  0  0  0  0  0
   -3.7883   11.4721    7.8504 C   0  0  0  0  0  0  0  0  0  0  0  0
   -4.9659   11.8579    7.9073 O   0  0  0  0  0  0  0  0  0  0  0  0
   -3.4105   10.4227    8.9033 C   0  0  2  0  0  0  0  0  0  0  0  0
   -4.7107    9.5722    9.0644 C   0  0  0  0  0  0  0  0  0  0  0  0
   -4.7083    8.3338    9.9494 C   0  0  0  0  0  0  0  0  0  0  0  0
   -6.1760    7.9303   10.1943 C   0  0  0  0  0  0  0  0  0  0  0  0
   -6.3110    6.5672   10.6496 N   0  0  0  0  0  0  0  0  0  0  0  0
   -6.0324    6.0654   11.8653 C   0  0  0  0  0  0  0  0  0  0  0  0
   -6.2308    4.8369   12.1846 N   0  0  0  0  0  0  0  0  0  0  0  0
   -5.5190    6.9019   12.7825 N   0  0  0  0  0  0  0  0  0  0  0  0
   -3.0208   11.1026   10.1646 N   0  0  0  0  0  0  0  0  0  0  0  0
   -3.8803   11.8254   10.9934 C   0  0  0  0  0  0  0  0  0  0  0  0
   -5.0371   12.1155   10.7074 O   0  0  0  0  0  0  0  0  0  0  0  0
   -3.2431   12.2949   12.3264 C   0  0  1  0  0  0  0  0  0  0  0  0
   -2.7003   13.6595   12.1822 N   0  0  0  0  0  0  0  0  0  0  0  0
   -4.2205   12.1461   13.5021 C   0  0  0  0  0  0  0  0  0  0  0  0
   -5.4180   13.0561   13.4391 C   0  0  0  0  0  0  0  0  0  0  0  0
   -5.3992   14.2743   13.3637 O   0  0  0  0  0  0  0  0  0  0  0  0
   -6.5880   12.3937   13.5324 O   0  0  0  0  0  0  0  0  0  0  0  0
   -1.7171   12.5122    4.6440 C   0  0  0  0  0  0  0  0  0  0  0  0
   -1.0404   11.5616    3.6489 C   0  0  0  0  0  0  0  0  0  0  0  0
   -2.9202   13.1380    3.9439 C   0  0  0  0  0  0  0  0  0  0  0  0
   -2.6433   15.2917    7.5761 C   0  0  0  0  0  0  0  0  0  0  0  0
   -2.6876   14.8340    8.7214 O   0  0  0  0  0  0  0  0  0  0  0  0
   -3.7393   15.1573    6.7213 N   0  0  0  0  0  0  0  0  0  0  0  0
   -5.0505   14.6140    7.1495 C   0  0  1  0  0  0  0  0  0  0  0  0
   -5.7314   15.4327    8.2790 C   0  0  0  0  0  0  0  0  0  0  0  0
   -5.8953   16.8961    8.0652 C   0  0  0  0  0  0  0  0  0  0  0  0
   -5.0067   17.9476    8.0168 C   0  0  0  0  0  0  0  0  0  0  0  0
   -5.6635   19.1448    7.9126 N   0  0  0  0  0  0  0  0  0  0  0  0
   -6.9398   18.8395    7.9406 C   0  0  0  0  0  0  0  0  0  0  0  0
   -7.1314   17.4904    8.0101 N   0  0  0  0  0  0  0  0  0  0  0  0
   -6.0807   14.2269    5.9965 C   0  0  0  0  0  0  0  0  0  0  0  0
   -6.9418   15.0866    5.7275 O   0  0  0  0  0  0  0  0  0  0  0  0
   -6.0762   13.0623    5.1999 N   0  0  0  0  0  0  0  0  0  0  0  0
   -5.4725   11.7321    5.2904 C   0  0  0  0  0  0  0  0  0  0  0  0
   -5.8484   10.9733    4.0315 C   0  0  0  0  0  0  0  0  0  0  0  0
   -7.2707   11.4155    3.8869 C   0  0  0  0  0  0  0  0  0  0  0  0
   -7.2394   12.8941    4.3400 C   0  0  1  0  0  0  0  0  0  0  0  0
   -7.2797   13.7670    3.0861 C   0  0  0  0  0  0  0  0  0  0  0  0
   -6.2784   14.2638    2.5720 O   0  0  0  0  0  0  0  0  0  0  0  0
   -8.4880   13.8242    2.4235 N   0  0  0  0  0  0  0  0  0  0  0  0
   -9.8093   13.8569    3.0951 C   0  0  1  0  0  0  0  0  0  0  0  0
  -10.9184   13.9382    2.0251 C   0  0  0  0  0  0  0  0  0  0  0  0
  -12.3034   13.9780    2.6268 C   0  0  0  0  0  0  0  0  0  0  0  0
  -12.9249   15.2003    2.8903 C   0  0  0  0  0  0  0  0  0  0  0  0
  -14.1289   15.2332    3.5939 C   0  0  0  0  0  0  0  0  0  0  0  0
  -14.7033   14.0522    4.0644 C   0  0  0  0  0  0  0  0  0  0  0  0
  -14.1055   12.8284    3.7859 C   0  0  0  0  0  0  0  0  0  0  0  0
  -12.9336   12.7903    3.0371 C   0  0  0  0  0  0  0  0  0  0  0  0
  -10.1395   12.6514    3.9997 C   0  0  0  0  0  0  0  0  0  0  0  0
  -10.4596   12.6958    5.1681 O   0  0  0  0  0  0  0  0  0  0  0  0
  -10.0529   11.4544    3.3768 O   0  0  0  0  0  0  0  0  0  0  0  0
   -0.1410   15.5580    3.0199 H   0  0  0  0  0  0  0  0  0  0  0  0
    1.0153   16.8991    2.9692 H   0  0  0  0  0  0  0  0  0  0  0  0
   -0.7149   17.2315    2.9235 H   0  0  0  0  0  0  0  0  0  0  0  0
    0.3557   17.6449    5.2080 H   0  0  0  0  0  0  0  0  0  0  0  0
    0.8188   15.9425    5.2443 H   0  0  0  0  0  0  0  0  0  0  0  0
   -1.6633   15.3660    5.0399 H   0  0  0  0  0  0  0  0  0  0  0  0
   -1.8463   18.3968    5.0844 H   0  0  0  0  0  0  0  0  0  0  0  0
   -3.1913   17.4914    5.7298 H   0  0  0  0  0  0  0  0  0  0  0  0
   -2.6937   17.2180    4.0677 H   0  0  0  0  0  0  0  0  0  0  0  0
   -1.5305   17.0736    7.4777 H   0  0  0  0  0  0  0  0  0  0  0  0
    0.6614   16.4946    7.4679 H   0  0  0  0  0  0  0  0  0  0  0  0
   -0.4941   13.9323    9.7387 H   0  0  0  0  0  0  0  0  0  0  0  0
    1.7533   12.9623   10.1459 H   0  0  0  0  0  0  0  0  0  0  0  0
    0.3446   11.9593   10.3884 H   0  0  0  0  0  0  0  0  0  0  0  0
    3.5318   11.5249    9.8627 H   0  0  0  0  0  0  0  0  0  0  0  0
    4.6271    9.5954    8.8208 H   0  0  0  0  0  0  0  0  0  0  0  0
    4.4211    7.9585    7.2537 H   0  0  0  0  0  0  0  0  0  0  0  0
    0.9968    8.6081    6.7635 H   0  0  0  0  0  0  0  0  0  0  0  0
   -0.1630   10.3792    7.9836 H   0  0  0  0  0  0  0  0  0  0  0  0
   -1.9106   13.0644    8.3276 H   0  0  0  0  0  0  0  0  0  0  0  0
   -1.6784   10.7488    6.0443 H   0  0  0  0  0  0  0  0  0  0  0  0
   -3.5067   12.9099    6.5534 H   0  0  0  0  0  0  0  0  0  0  0  0
   -2.5717    9.8185    8.5540 H   0  0  0  0  0  0  0  0  0  0  0  0
   -5.5239   10.2109    9.4354 H   0  0  0  0  0  0  0  0  0  0  0  0
   -5.0423    9.2596    8.0633 H   0  0  0  0  0  0  0  0  0  0  0  0
   -4.2116    8.5336   10.9036 H   0  0  0  0  0  0  0  0  0  0  0  0
   -4.1635    7.5276    9.4471 H   0  0  0  0  0  0  0  0  0  0  0  0
   -6.7450    8.0178    9.2594 H   0  0  0  0  0  0  0  0  0  0  0  0
   -6.6549    8.6222   10.8987 H   0  0  0  0  0  0  0  0  0  0  0  0
   -6.7203    5.9334    9.9758 H   0  0  0  0  0  0  0  0  0  0  0  0
   -6.6210    4.3393   11.3832 H   0  0  0  0  0  0  0  0  0  0  0  0
   -6.0393    7.7628   12.8778 H   0  0  0  0  0  0  0  0  0  0  0  0
   -5.4691    6.4199   13.6748 H   0  0  0  0  0  0  0  0  0  0  0  0
   -2.0875   10.9204   10.5119 H   0  0  0  0  0  0  0  0  0  0  0  0
   -2.3939   11.6345   12.5360 H   0  0  0  0  0  0  0  0  0  0  0  0
   -3.4615   14.3370   12.3299 H   0  0  0  0  0  0  0  0  0  0  0  0
   -2.4178   13.8291   11.2143 H   0  0  0  0  0  0  0  0  0  0  0  0
   -3.7158   12.3461   14.4556 H   0  0  0  0  0  0  0  0  0  0  0  0
   -4.5758   11.1088   13.5484 H   0  0  0  0  0  0  0  0  0  0  0  0
   -7.2622   13.1000   13.4403 H   0  0  0  0  0  0  0  0  0  0  0  0
   -1.0297   13.3634    4.7242 H   0  0  0  0  0  0  0  0  0  0  0  0
   -1.6642   10.6835    3.4578 H   0  0  0  0  0  0  0  0  0  0  0  0
   -0.0675   11.2290    4.0205 H   0  0  0  0  0  0  0  0  0  0  0  0
   -0.8692   12.0696    2.6916 H   0  0  0  0  0  0  0  0  0  0  0  0
   -3.5340   13.7407    4.6057 H   0  0  0  0  0  0  0  0  0  0  0  0
   -2.5787   13.8237    3.1562 H   0  0  0  0  0  0  0  0  0  0  0  0
   -3.5271   12.3936    3.4337 H   0  0  0  0  0  0  0  0  0  0  0  0
   -3.7737   15.6425    5.8367 H   0  0  0  0  0  0  0  0  0  0  0  0
   -4.8026   13.7466    7.7046 H   0  0  0  0  0  0  0  0  0  0  0  0
   -5.1510   15.3138    9.2053 H   0  0  0  0  0  0  0  0  0  0  0  0
   -6.7079   14.9796    8.4980 H   0  0  0  0  0  0  0  0  0  0  0  0
   -3.9283   17.9144    8.0800 H   0  0  0  0  0  0  0  0  0  0  0  0
   -7.7619   19.5415    7.9243 H   0  0  0  0  0  0  0  0  0  0  0  0
   -8.0234   17.0173    8.0623 H   0  0  0  0  0  0  0  0  0  0  0  0
   -5.9222   11.1910    6.1240 H   0  0  0  0  0  0  0  0  0  0  0  0
   -4.4074   11.7343    5.3215 H   0  0  0  0  0  0  0  0  0  0  0  0
   -5.7370    9.8893    4.1390 H   0  0  0  0  0  0  0  0  0  0  0  0
   -5.2647   11.2866    3.1609 H   0  0  0  0  0  0  0  0  0  0  0  0
   -7.8902   10.8199    4.5674 H   0  0  0  0  0  0  0  0  0  0  0  0
   -7.6162   11.2524    2.8615 H   0  0  0  0  0  0  0  0  0  0  0  0
   -8.0903   13.1160    4.9774 H   0  0  0  0  0  0  0  0  0  0  0  0
   -8.3868   14.4456    1.6288 H   0  0  0  0  0  0  0  0  0  0  0  0
   -9.8086   14.7490    3.7339 H   0  0  0  0  0  0  0  0  0  0  0  0
  -10.8459   13.0825    1.3399 H   0  0  0  0  0  0  0  0  0  0  0  0
  -10.7584   14.8261    1.4001 H   0  0  0  0  0  0  0  0  0  0  0  0
  -12.4704   16.1339    2.5675 H   0  0  0  0  0  0  0  0  0  0  0  0
  -14.6100   16.1858    3.7969 H   0  0  0  0  0  0  0  0  0  0  0  0
  -15.6173   14.0857    4.6503 H   0  0  0  0  0  0  0  0  0  0  0  0
  -14.5379   11.9061    4.1647 H   0  0  0  0  0  0  0  0  0  0  0  0
  -12.4858   11.8210    2.8285 H   0  0  0  0  0  0  0  0  0  0  0  0
  -10.2857   10.8165    4.0857 H   0  0  0  0  0  0  0  0  0  0  0  0
  1  2  1  0  0  0  0
  1 76  1  0  0  0  0
  1 77  1  0  0  0  0
  1 78  1  0  0  0  0
  2 79  1  0  0  0  0
  2 80  1  0  0  0  0
  3  4  1  0  0  0  0
  3  2  1  0  0  0  0
  3 81  1  6  0  0  0
  4 82  1  0  0  0  0
  4 83  1  0  0  0  0
  4 84  1  0  0  0  0
  5 45  1  0  0  0  0
  5  6  1  0  0  0  0
  5  3  1  0  0  0  0
  5 85  1  1  0  0  0
  6  7  1  0  0  0  0
  6 86  1  0  0  0  0
  7  8  2  0  0  0  0
  9 18  1  0  0  0  0
  9 10  1  0  0  0  0
  9  7  1  0  0  0  0
  9 87  1  1  0  0  0
 10 11  1  0  0  0  0
 10 88  1  0  0  0  0
 10 89  1  0  0  0  0
 11 12  1  0  0  0  0
 11 17  2  0  0  0  0
 12 13  2  0  0  0  0
 12 90  1  0  0  0  0
 13 14  1  0  0  0  0
 13 91  1  0  0  0  0
 14 15  1  0  0  0  0
 14 16  2  0  0  0  0
 15 92  1  0  0  0  0
 16 17  1  0  0  0  0
 16 93  1  0  0  0  0
 17 94  1  0  0  0  0
 18 19  1  0  0  0  0
 18 95  1  0  0  0  0
 19 20  2  0  0  0  0
 19 21  1  0  0  0  0
 21 22  1  0  0  0  0
 21 42  1  0  0  0  0
 21 96  1  6  0  0  0
 22 23  1  0  0  0  0
 22 97  1  0  0  0  0
 23 24  2  0  0  0  0
 25 33  1  0  0  0  0
 25 26  1  0  0  0  0
 25 23  1  0  0  0  0
 25 98  1  6  0  0  0
 26 27  1  0  0  0  0
 26 99  1  0  0  0  0
 26100  1  0  0  0  0
 27 28  1  0  0  0  0
 27101  1  0  0  0  0
 27102  1  0  0  0  0
 28 29  1  0  0  0  0
 28103  1  0  0  0  0
 28104  1  0  0  0  0
 29 30  1  0  0  0  0
 29105  1  0  0  0  0
 30 31  2  0  0  0  0
 30 32  1  0  0  0  0
 31106  1  0  0  0  0
 32107  1  0  0  0  0
 32108  1  0  0  0  0
 33 34  1  0  0  0  0
 33109  1  0  0  0  0
 34 35  2  0  0  0  0
 34 36  1  0  0  0  0
 36 37  1  0  0  0  0
 36 38  1  0  0  0  0
 36110  1  1  0  0  0
 37111  1  0  0  0  0
 37112  1  0  0  0  0
 38 39  1  0  0  0  0
 38113  1  0  0  0  0
 38114  1  0  0  0  0
 39 40  2  0  0  0  0
 39 41  1  0  0  0  0
 41115  1  0  0  0  0
 42 43  1  0  0  0  0
 42 44  1  0  0  0  0
 42116  1  0  0  0  0
 43117  1  0  0  0  0
 43118  1  0  0  0  0
 43119  1  0  0  0  0
 44120  1  0  0  0  0
 44121  1  0  0  0  0
 44122  1  0  0  0  0
 45 46  2  0  0  0  0
 45 47  1  0  0  0  0
 47 48  1  0  0  0  0
 47123  1  0  0  0  0
 48 49  1  0  0  0  0
 48 55  1  0  0  0  0
 48124  1  1  0  0  0
 49 50  1  0  0  0  0
 49125  1  0  0  0  0
 49126  1  0  0  0  0
 50 51  2  0  0  0  0
 50 54  1  0  0  0  0
 51 52  1  0  0  0  0
 51127  1  0  0  0  0
 52 53  2  0  0  0  0
 53 54  1  0  0  0  0
 53128  1  0  0  0  0
 54129  1  0  0  0  0
 55 56  2  0  0  0  0
 55 57  1  0  0  0  0
 57 58  1  0  0  0  0
 57 61  1  0  0  0  0
 58 59  1  0  0  0  0
 58130  1  0  0  0  0
 58131  1  0  0  0  0
 59 60  1  0  0  0  0
 59132  1  0  0  0  0
 59133  1  0  0  0  0
 60 61  1  0  0  0  0
 60134  1  0  0  0  0
 60135  1  0  0  0  0
 61 62  1  0  0  0  0
 61136  1  6  0  0  0
 62 63  2  0  0  0  0
 62 64  1  0  0  0  0
 64 65  1  0  0  0  0
 64137  1  0  0  0  0
 65 66  1  0  0  0  0
 65 73  1  0  0  0  0
 65138  1  1  0  0  0
 66 67  1  0  0  0  0
 66139  1  0  0  0  0
 66140  1  0  0  0  0
 67 68  1  0  0  0  0
 67 72  2  0  0  0  0
 68 69  2  0  0  0  0
 68141  1  0  0  0  0
 69 70  1  0  0  0  0
 69142  1  0  0  0  0
 70 71  2  0  0  0  0
 70143  1  0  0  0  0
 71 72  1  0  0  0  0
 71144  1  0  0  0  0
 72145  1  0  0  0  0
 73 74  2  0  0  0  0
 73 75  1  0  0  0  0
 75146  1  0  0  0  0
M  END
$$$$
