CHEBI:6759
 OpenBabel04242411073D

 40 41  0  0  0  0  0  0  0  0999 V2000
   -0.9736    1.1530   -0.1944 C   0  0  0  0  0  0  0  0  0  0  0  0
   -0.6609    1.2607    1.2771 C   0  0  0  0  0  0  0  0  0  0  0  0
   -0.9066    0.1357    2.0817 C   0  0  0  0  0  0  0  0  0  0  0  0
   -0.6129    0.1583    3.4379 C   0  0  0  0  0  0  0  0  0  0  0  0
   -0.1032    1.3180    4.0102 C   0  0  0  0  0  0  0  0  0  0  0  0
    0.1284    2.4758    3.2405 C   0  0  0  0  0  0  0  0  0  0  0  0
    0.5525    3.7013    4.0032 C   0  0  0  0  0  0  0  0  0  0  0  0
   -0.1004    2.4333    1.8487 C   0  0  0  0  0  0  0  0  0  0  0  0
    0.1478    3.5072    0.9667 N   0  0  0  0  0  0  0  0  0  0  0  0
    1.1387    4.4730    1.0129 C   0  0  0  0  0  0  0  0  0  0  0  0
    2.0490    4.5577    1.8321 O   0  0  0  0  0  0  0  0  0  0  0  0
    1.1092    5.4057   -0.2246 C   0  0  0  0  0  0  0  0  0  0  0  0
    1.9384    4.7079   -1.3187 C   0  0  0  0  0  0  0  0  0  0  0  0
    1.9038    5.4669   -2.6367 C   0  0  0  0  0  0  0  0  0  0  0  0
    0.4633    5.7187   -3.0541 C   0  0  0  0  0  0  0  0  0  0  0  0
   -0.3067    6.4241   -1.9413 C   0  0  0  0  0  0  0  0  0  0  0  0
   -0.2948    5.6535   -0.6828 N   0  0  0  0  0  0  0  0  0  0  0  0
   -1.0419    6.4183    0.3323 C   0  0  0  0  0  0  0  0  0  0  0  0
   -0.0757    1.3451   -0.7909 H   0  0  0  0  0  0  0  0  0  0  0  0
   -1.7592    1.8644   -0.4683 H   0  0  0  0  0  0  0  0  0  0  0  0
   -1.3307    0.1522   -0.4602 H   0  0  0  0  0  0  0  0  0  0  0  0
   -1.3183   -0.7736    1.6493 H   0  0  0  0  0  0  0  0  0  0  0  0
   -0.7947   -0.7189    4.0527 H   0  0  0  0  0  0  0  0  0  0  0  0
    0.0932    1.3288    5.0810 H   0  0  0  0  0  0  0  0  0  0  0  0
    1.6414    3.7413    4.0933 H   0  0  0  0  0  0  0  0  0  0  0  0
    0.1367    3.6859    5.0179 H   0  0  0  0  0  0  0  0  0  0  0  0
    0.1665    4.6166    3.5455 H   0  0  0  0  0  0  0  0  0  0  0  0
   -0.3556    3.5149    0.0852 H   0  0  0  0  0  0  0  0  0  0  0  0
    1.5829    6.3564    0.0543 H   0  0  0  0  0  0  0  0  0  0  0  0
    1.5685    3.6870   -1.4853 H   0  0  0  0  0  0  0  0  0  0  0  0
    2.9787    4.6038   -0.9863 H   0  0  0  0  0  0  0  0  0  0  0  0
    2.4261    4.8969   -3.4127 H   0  0  0  0  0  0  0  0  0  0  0  0
    2.4311    6.4222   -2.5267 H   0  0  0  0  0  0  0  0  0  0  0  0
   -0.0248    4.7668   -3.2981 H   0  0  0  0  0  0  0  0  0  0  0  0
    0.4440    6.3310   -3.9627 H   0  0  0  0  0  0  0  0  0  0  0  0
   -1.3423    6.5570   -2.2779 H   0  0  0  0  0  0  0  0  0  0  0  0
    0.1160    7.4262   -1.7876 H   0  0  0  0  0  0  0  0  0  0  0  0
   -2.0684    6.5970   -0.0079 H   0  0  0  0  0  0  0  0  0  0  0  0
   -0.5761    7.3880    0.5423 H   0  0  0  0  0  0  0  0  0  0  0  0
   -1.1269    5.8693    1.2750 H   0  0  0  0  0  0  0  0  0  0  0  0
  1  2  1  0  0  0  0
  1 19  1  0  0  0  0
  1 20  1  0  0  0  0
  1 21  1  0  0  0  0
  2  3  1  0  0  0  0
  2  8  2  0  0  0  0
  3  4  2  0  0  0  0
  3 22  1  0  0  0  0
  4  5  1  0  0  0  0
  4 23  1  0  0  0  0
  5  6  2  0  0  0  0
  5 24  1  0  0  0  0
  6  7  1  0  0  0  0
  6  8  1  0  0  0  0
  7 25  1  0  0  0  0
  7 26  1  0  0  0  0
  7 27  1  0  0  0  0
  8  9  1  0  0  0  0
  9 10  1  0  0  0  0
  9 28  1  0  0  0  0
 10 11  2  0  0  0  0
 10 12  1  0  0  0  0
 12 13  1  0  0  0  0
 12 17  1  0  0  0  0
 12 29  1  0  0  0  0
 13 14  1  0  0  0  0
 13 30  1  0  0  0  0
 13 31  1  0  0  0  0
 14 15  1  0  0  0  0
 14 32  1  0  0  0  0
 14 33  1  0  0  0  0
 15 16  1  0  0  0  0
 15 34  1  0  0  0  0
 15 35  1  0  0  0  0
 16 17  1  0  0  0  0
 16 36  1  0  0  0  0
 16 37  1  0  0  0  0
 17 18  1  0  0  0  0
 18 38  1  0  0  0  0
 18 39  1  0  0  0  0
 18 40  1  0  0  0  0
M  END
$$$$
