CHEBI:4315
 OpenBabel04242410573D

 52 56  0  0  1  0  0  0  0  0999 V2000
    5.5811    1.8526   -1.5296 C   0  0  0  0  0  0  0  0  0  0  0  0
    5.0577    0.7808   -1.5753 C   0  0  0  0  0  0  0  0  0  0  0  0
    4.2209   -0.4225   -1.3907 C   0  0  2  0  0  0  0  0  0  0  0  0
    2.9418   -0.1705   -1.9598 O   0  0  0  0  0  0  0  0  0  0  0  0
    4.0711   -0.6499    0.1369 C   0  0  0  0  0  0  0  0  0  0  0  0
    5.3482   -1.3795    0.5409 C   0  0  0  0  0  0  0  0  0  0  0  0
    5.8490   -2.0697   -0.7333 C   0  0  1  0  0  0  0  0  0  0  0  0
    6.0859   -3.5551   -0.6345 C   0  0  2  0  0  0  0  0  0  0  0  0
    7.0187   -3.9890    0.4873 C   0  0  0  0  0  0  0  0  0  0  0  0
    6.5305   -5.3640    0.8906 C   0  0  0  0  0  0  0  0  0  0  0  0
    6.2538   -6.2974   -0.2950 C   0  0  0  0  0  0  0  0  0  0  0  0
    6.5013   -7.6041   -0.0108 C   0  0  0  0  0  0  0  0  0  0  0  0
    7.9086   -7.8177   -0.1334 C   0  0  0  0  0  0  0  0  0  0  0  0
    8.7460   -8.4532    0.7296 O   0  0  0  0  0  0  0  0  0  0  0  0
   10.0584   -8.2635    0.3166 N   0  0  0  0  0  0  0  0  0  0  0  0
    9.9821   -7.5193   -0.7919 C   0  0  0  0  0  0  0  0  0  0  0  0
    8.6556   -7.2244   -1.1357 C   0  0  0  0  0  0  0  0  0  0  0  0
    8.0169   -6.4057   -2.2231 C   0  0  0  0  0  0  0  0  0  0  0  0
    6.6010   -5.7839   -1.7839 C   0  0  1  0  0  0  0  0  0  0  0  0
    5.5107   -6.3855   -2.7069 C   0  0  0  0  0  0  0  0  0  0  0  0
    6.6395   -4.1708   -1.9377 C   0  0  1  0  0  0  0  0  0  0  0  0
    6.0868   -3.5016   -3.2590 C   0  0  0  0  0  0  0  0  0  0  0  0
    5.5717   -2.0161   -3.1488 C   0  0  0  0  0  0  0  0  0  0  0  0
    4.7902   -1.8019   -1.8371 C   0  0  2  0  0  0  0  0  0  0  0  0
    3.5704   -2.7939   -1.8972 C   0  0  0  0  0  0  0  0  0  0  0  0
    5.9699    2.8403   -1.3867 H   0  0  0  0  0  0  0  0  0  0  0  0
    2.7807    0.7868   -1.9203 H   0  0  0  0  0  0  0  0  0  0  0  0
    3.2016   -1.2737    0.3742 H   0  0  0  0  0  0  0  0  0  0  0  0
    3.9358    0.2717    0.7134 H   0  0  0  0  0  0  0  0  0  0  0  0
    5.1743   -2.0603    1.3780 H   0  0  0  0  0  0  0  0  0  0  0  0
    6.1038   -0.6521    0.8680 H   0  0  0  0  0  0  0  0  0  0  0  0
    6.8034   -1.5859   -0.9966 H   0  0  0  0  0  0  0  0  0  0  0  0
    5.1026   -3.9923   -0.4266 H   0  0  0  0  0  0  0  0  0  0  0  0
    6.9989   -3.3212    1.3521 H   0  0  0  0  0  0  0  0  0  0  0  0
    8.0664   -4.0340    0.1609 H   0  0  0  0  0  0  0  0  0  0  0  0
    5.5821   -5.2429    1.4335 H   0  0  0  0  0  0  0  0  0  0  0  0
    7.2374   -5.7945    1.6096 H   0  0  0  0  0  0  0  0  0  0  0  0
    5.9853   -8.3704   -0.5886 H   0  0  0  0  0  0  0  0  0  0  0  0
   10.8992   -7.2198   -1.2763 H   0  0  0  0  0  0  0  0  0  0  0  0
    7.8752   -7.0714   -3.0856 H   0  0  0  0  0  0  0  0  0  0  0  0
    8.7139   -5.6282   -2.5498 H   0  0  0  0  0  0  0  0  0  0  0  0
    5.4349   -7.4741   -2.6077 H   0  0  0  0  0  0  0  0  0  0  0  0
    5.7283   -6.1965   -3.7638 H   0  0  0  0  0  0  0  0  0  0  0  0
    4.5215   -5.9767   -2.4753 H   0  0  0  0  0  0  0  0  0  0  0  0
    7.7018   -3.8846   -1.9650 H   0  0  0  0  0  0  0  0  0  0  0  0
    5.2675   -4.0854   -3.6855 H   0  0  0  0  0  0  0  0  0  0  0  0
    6.8750   -3.5343   -4.0237 H   0  0  0  0  0  0  0  0  0  0  0  0
    4.9438   -1.7849   -4.0184 H   0  0  0  0  0  0  0  0  0  0  0  0
    6.4328   -1.3382   -3.2064 H   0  0  0  0  0  0  0  0  0  0  0  0
    3.8382   -3.8161   -2.1655 H   0  0  0  0  0  0  0  0  0  0  0  0
    2.8551   -2.4761   -2.6651 H   0  0  0  0  0  0  0  0  0  0  0  0
    3.0355   -2.8727   -0.9483 H   0  0  0  0  0  0  0  0  0  0  0  0
  1  2  3  0  0  0  0
  1 26  1  0  0  0  0
  3  5  1  0  0  0  0
  3 24  1  0  0  0  0
  3  4  1  0  0  0  0
  3  2  1  6  0  0  0
  4 27  1  0  0  0  0
  5  6  1  0  0  0  0
  5 28  1  0  0  0  0
  5 29  1  0  0  0  0
  6  7  1  0  0  0  0
  6 30  1  0  0  0  0
  6 31  1  0  0  0  0
  7  8  1  0  0  0  0
  7 24  1  0  0  0  0
  7 32  1  6  0  0  0
  8  9  1  0  0  0  0
  8 21  1  0  0  0  0
  8 33  1  1  0  0  0
  9 10  1  0  0  0  0
  9 34  1  0  0  0  0
  9 35  1  0  0  0  0
 10 11  1  0  0  0  0
 10 36  1  0  0  0  0
 10 37  1  0  0  0  0
 11 12  2  0  0  0  0
 11 19  1  0  0  0  0
 12 13  1  0  0  0  0
 12 38  1  0  0  0  0
 13 14  1  0  0  0  0
 13 17  2  0  0  0  0
 14 15  1  0  0  0  0
 15 16  2  0  0  0  0
 16 17  1  0  0  0  0
 16 39  1  0  0  0  0
 17 18  1  0  0  0  0
 18 19  1  0  0  0  0
 18 40  1  0  0  0  0
 18 41  1  0  0  0  0
 19 20  1  6  0  0  0
 19 21  1  0  0  0  0
 20 42  1  0  0  0  0
 20 43  1  0  0  0  0
 20 44  1  0  0  0  0
 21 22  1  0  0  0  0
 21 45  1  1  0  0  0
 22 23  1  0  0  0  0
 22 46  1  0  0  0  0
 22 47  1  0  0  0  0
 23 24  1  0  0  0  0
 23 48  1  0  0  0  0
 23 49  1  0  0  0  0
 24 25  1  1  0  0  0
 25 50  1  0  0  0  0
 25 51  1  0  0  0  0
 25 52  1  0  0  0  0
M  END
$$$$
