CHEBI:27398
 OpenBabel04252409473D

 14 14  0  0  0  0  0  0  0  0999 V2000
    1.8228    0.5493    0.6736 O   0  0  0  0  0  0  0  0  0  0  0  0
    2.8942    0.7037    0.0895 C   0  0  0  0  0  0  0  0  0  0  0  0
    3.3845   -0.2184   -0.9917 C   0  0  0  0  0  0  0  0  0  0  0  0
    4.8149   -0.5478   -0.7795 C   0  0  0  0  0  0  0  0  0  0  0  0
    5.4041   -1.7738   -0.5534 C   0  0  0  0  0  0  0  0  0  0  0  0
    6.7417   -1.5157   -0.4338 N   0  0  0  0  0  0  0  0  0  0  0  0
    6.9160   -0.1708   -0.5911 C   0  0  0  0  0  0  0  0  0  0  0  0
    5.7733    0.4402   -0.8039 N   0  0  0  0  0  0  0  0  0  0  0  0
    3.5122    1.5984    0.2816 H   0  0  0  0  0  0  0  0  0  0  0  0
    3.2571    0.2877   -1.9539 H   0  0  0  0  0  0  0  0  0  0  0  0
    2.7696   -1.1244   -0.9931 H   0  0  0  0  0  0  0  0  0  0  0  0
    5.0005   -2.7734   -0.4700 H   0  0  0  0  0  0  0  0  0  0  0  0
    7.4731   -2.1922   -0.2618 H   0  0  0  0  0  0  0  0  0  0  0  0
    7.8890    0.3001   -0.5416 H   0  0  0  0  0  0  0  0  0  0  0  0
  1  2  2  0  0  0  0
  2  3  1  0  0  0  0
  2  9  1  0  0  0  0
  3  4  1  0  0  0  0
  3 10  1  0  0  0  0
  3 11  1  0  0  0  0
  4  5  2  0  0  0  0
  4  8  1  0  0  0  0
  5  6  1  0  0  0  0
  5 12  1  0  0  0  0
  6  7  1  0  0  0  0
  6 13  1  0  0  0  0
  7  8  2  0  0  0  0
  7 14  1  0  0  0  0
M  END
$$$$
