CHEBI:17231
 OpenBabel04242416033D

 16 16  0  0  0  0  0  0  0  0999 V2000
    2.5232    1.1867    0.0022 C   0  0  0  0  0  0  0  0  0  0  0  0
    1.2617    0.3760    0.0006 C   0  0  0  0  0  0  0  0  0  0  0  0
    1.3019   -1.0239    0.0057 C   0  0  0  0  0  0  0  0  0  0  0  0
    0.1179   -1.7658    0.0040 C   0  0  0  0  0  0  0  0  0  0  0  0
   -1.1167   -1.1168   -0.0028 C   0  0  0  0  0  0  0  0  0  0  0  0
   -1.1553    0.2736   -0.0077 C   0  0  0  0  0  0  0  0  0  0  0  0
   -2.3392    0.9508   -0.0139 O   0  0  0  0  0  0  0  0  0  0  0  0
    0.0183    1.0208   -0.0064 C   0  0  0  0  0  0  0  0  0  0  0  0
    3.4118    0.5470    0.0100 H   0  0  0  0  0  0  0  0  0  0  0  0
    2.5608    1.8240    0.8915 H   0  0  0  0  0  0  0  0  0  0  0  0
    2.5692    1.8145   -0.8935 H   0  0  0  0  0  0  0  0  0  0  0  0
    2.2556   -1.5469    0.0111 H   0  0  0  0  0  0  0  0  0  0  0  0
    0.1608   -2.8519    0.0079 H   0  0  0  0  0  0  0  0  0  0  0  0
   -2.0275   -1.7065   -0.0041 H   0  0  0  0  0  0  0  0  0  0  0  0
   -3.0632    0.3039   -0.0112 H   0  0  0  0  0  0  0  0  0  0  0  0
   -0.0403    2.1062   -0.0106 H   0  0  0  0  0  0  0  0  0  0  0  0
  1  2  1  0  0  0  0
  1  9  1  0  0  0  0
  1 10  1  0  0  0  0
  1 11  1  0  0  0  0
  2  3  1  0  0  0  0
  2  8  2  0  0  0  0
  3  4  2  0  0  0  0
  3 12  1  0  0  0  0
  4  5  1  0  0  0  0
  4 13  1  0  0  0  0
  5  6  2  0  0  0  0
  5 14  1  0  0  0  0
  6  7  1  0  0  0  0
  6  8  1  0  0  0  0
  7 15  1  0  0  0  0
  8 16  1  0  0  0  0
M  END
$$$$
