CHEBI:16659
 OpenBabel04242415013D

 12 11  0  0  1  0  0  0  0  0999 V2000
    1.7334   -0.8346   -0.9593 O   0  0  0  0  0  0  0  0  0  0  0  0
    2.4549   -1.8803   -1.0164 C   0  0  0  0  0  0  0  0  0  0  0  0
    2.6250   -2.7011   -1.9561 O   0  5  0  0  0  0  0  0  0  0  0  0
    3.2248   -2.1510    0.3002 C   0  0  2  0  0  0  0  0  0  0  0  0
    3.1358   -0.9818    1.1713 O   0  0  0  0  0  0  0  0  0  0  0  0
    4.6893   -2.4132    0.0040 C   0  0  0  0  0  0  0  0  0  0  0  0
    5.4162   -2.4357    1.2442 O   0  0  0  0  0  0  0  0  0  0  0  0
    2.7691   -2.9834    0.8450 H   0  0  0  0  0  0  0  0  0  0  0  0
    2.4605   -0.4383    0.6896 H   0  0  0  0  0  0  0  0  0  0  0  0
    5.1229   -1.6135   -0.6058 H   0  0  0  0  0  0  0  0  0  0  0  0
    4.8449   -3.3674   -0.5077 H   0  0  0  0  0  0  0  0  0  0  0  0
    4.9613   -1.7472    1.7743 H   0  0  0  0  0  0  0  0  0  0  0  0
  1  2  2  0  0  0  0
  2  3  1  0  0  0  0
  4  6  1  0  0  0  0
  4  5  1  0  0  0  0
  4  2  1  0  0  0  0
  4  8  1  1  0  0  0
  5  9  1  0  0  0  0
  6  7  1  0  0  0  0
  6 10  1  0  0  0  0
  6 11  1  0  0  0  0
  7 12  1  0  0  0  0
M  CHG  1   3  -1
M  END
$$$$
