CHEBI:15683
 OpenBabel04242413043D

 56 55  0  0  1  0  0  0  0  0999 V2000
    9.9120    2.5278    4.2472 C   0  0  0  0  0  0  0  0  0  0  0  0
    8.8246    3.1043    3.3522 C   0  0  0  0  0  0  0  0  0  0  0  0
    7.5710    2.2288    3.2896 C   0  0  0  0  0  0  0  0  0  0  0  0
    6.7712    2.2391    4.5943 C   0  0  0  0  0  0  0  0  0  0  0  0
    5.4970    1.3905    4.5262 C   0  0  0  0  0  0  0  0  0  0  0  0
    5.7141   -0.1075    4.2806 C   0  0  0  0  0  0  0  0  0  0  0  0
    6.6359   -0.7518    5.3178 C   0  0  0  0  0  0  0  0  0  0  0  0
    6.6766   -2.2731    5.1813 C   0  0  0  0  0  0  0  0  0  0  0  0
    7.5380   -2.9290    6.2709 C   0  0  1  0  0  0  0  0  0  0  0  0
    7.1406   -4.2907    6.3548 O   0  0  0  0  0  0  0  0  0  0  0  0
    9.0491   -2.7833    5.9995 C   0  0  0  0  0  0  0  0  0  0  0  0
    9.9546   -3.5614    6.9674 C   0  0  0  0  0  0  0  0  0  0  0  0
   10.6739   -4.8012    6.4036 C   0  0  0  0  0  0  0  0  0  0  0  0
    9.7932   -6.0156    6.0828 C   0  0  0  0  0  0  0  0  0  0  0  0
    9.1968   -5.9523    4.6770 C   0  0  0  0  0  0  0  0  0  0  0  0
    8.0744   -6.9645    4.4435 C   0  0  0  0  0  0  0  0  0  0  0  0
    7.1452   -6.5411    3.2958 C   0  0  0  0  0  0  0  0  0  0  0  0
    7.8766   -6.2507    1.9886 C   0  0  0  0  0  0  0  0  0  0  0  0
    6.8546   -5.8281    0.9354 C   0  0  0  0  0  0  0  0  0  0  0  0
    6.3582   -6.7751    0.2609 O   0  0  0  0  0  0  0  0  0  0  0  0
    6.6529   -4.5843    0.8504 O   0  5  0  0  0  0  0  0  0  0  0  0
   10.8055    3.1589    4.2066 H   0  0  0  0  0  0  0  0  0  0  0  0
   10.1944    1.5214    3.9214 H   0  0  0  0  0  0  0  0  0  0  0  0
    9.5908    2.4742    5.2912 H   0  0  0  0  0  0  0  0  0  0  0  0
    9.2296    3.2051    2.3383 H   0  0  0  0  0  0  0  0  0  0  0  0
    8.5639    4.1130    3.6924 H   0  0  0  0  0  0  0  0  0  0  0  0
    7.8621    1.2072    3.0219 H   0  0  0  0  0  0  0  0  0  0  0  0
    6.9289    2.5989    2.4810 H   0  0  0  0  0  0  0  0  0  0  0  0
    6.4824    3.2719    4.8263 H   0  0  0  0  0  0  0  0  0  0  0  0
    7.3913    1.9029    5.4313 H   0  0  0  0  0  0  0  0  0  0  0  0
    4.8413    1.7848    3.7403 H   0  0  0  0  0  0  0  0  0  0  0  0
    4.9528    1.5141    5.4712 H   0  0  0  0  0  0  0  0  0  0  0  0
    6.1144   -0.2726    3.2738 H   0  0  0  0  0  0  0  0  0  0  0  0
    4.7338   -0.6000    4.3061 H   0  0  0  0  0  0  0  0  0  0  0  0
    6.2833   -0.4916    6.3233 H   0  0  0  0  0  0  0  0  0  0  0  0
    7.6486   -0.3506    5.2114 H   0  0  0  0  0  0  0  0  0  0  0  0
    7.0448   -2.5578    4.1869 H   0  0  0  0  0  0  0  0  0  0  0  0
    5.6546   -2.6696    5.2415 H   0  0  0  0  0  0  0  0  0  0  0  0
    7.3007   -2.4753    7.2402 H   0  0  0  0  0  0  0  0  0  0  0  0
    7.5209   -4.6686    7.1616 H   0  0  0  0  0  0  0  0  0  0  0  0
    9.2980   -1.7184    6.0947 H   0  0  0  0  0  0  0  0  0  0  0  0
    9.2942   -3.0376    4.9638 H   0  0  0  0  0  0  0  0  0  0  0  0
    9.4179   -3.8215    7.8865 H   0  0  0  0  0  0  0  0  0  0  0  0
   10.7494   -2.8699    7.2803 H   0  0  0  0  0  0  0  0  0  0  0  0
   11.3929   -5.1185    7.1709 H   0  0  0  0  0  0  0  0  0  0  0  0
   11.2711   -4.5222    5.5272 H   0  0  0  0  0  0  0  0  0  0  0  0
    9.0196   -6.1290    6.8484 H   0  0  0  0  0  0  0  0  0  0  0  0
   10.4111   -6.9208    6.1441 H   0  0  0  0  0  0  0  0  0  0  0  0
    9.9975   -6.1200    3.9459 H   0  0  0  0  0  0  0  0  0  0  0  0
    8.8034   -4.9574    4.4772 H   0  0  0  0  0  0  0  0  0  0  0  0
    7.4633   -7.0682    5.3486 H   0  0  0  0  0  0  0  0  0  0  0  0
    8.5040   -7.9511    4.2356 H   0  0  0  0  0  0  0  0  0  0  0  0
    6.5840   -5.6493    3.6058 H   0  0  0  0  0  0  0  0  0  0  0  0
    6.3983   -7.3292    3.1392 H   0  0  0  0  0  0  0  0  0  0  0  0
    8.4246   -7.1357    1.6475 H   0  0  0  0  0  0  0  0  0  0  0  0
    8.6041   -5.4402    2.1087 H   0  0  0  0  0  0  0  0  0  0  0  0
  1  2  1  0  0  0  0
  1 22  1  0  0  0  0
  1 23  1  0  0  0  0
  1 24  1  0  0  0  0
  2  3  1  0  0  0  0
  2 25  1  0  0  0  0
  2 26  1  0  0  0  0
  3  4  1  0  0  0  0
  3 27  1  0  0  0  0
  3 28  1  0  0  0  0
  4  5  1  0  0  0  0
  4 29  1  0  0  0  0
  4 30  1  0  0  0  0
  5  6  1  0  0  0  0
  5 31  1  0  0  0  0
  5 32  1  0  0  0  0
  6  7  1  0  0  0  0
  6 33  1  0  0  0  0
  6 34  1  0  0  0  0
  7  8  1  0  0  0  0
  7 35  1  0  0  0  0
  7 36  1  0  0  0  0
  8  9  1  0  0  0  0
  8 37  1  0  0  0  0
  8 38  1  0  0  0  0
  9 10  1  0  0  0  0
  9 11  1  0  0  0  0
  9 39  1  1  0  0  0
 10 40  1  0  0  0  0
 11 12  1  0  0  0  0
 11 41  1  0  0  0  0
 11 42  1  0  0  0  0
 12 13  1  0  0  0  0
 12 43  1  0  0  0  0
 12 44  1  0  0  0  0
 13 14  1  0  0  0  0
 13 45  1  0  0  0  0
 13 46  1  0  0  0  0
 14 15  1  0  0  0  0
 14 47  1  0  0  0  0
 14 48  1  0  0  0  0
 15 16  1  0  0  0  0
 15 49  1  0  0  0  0
 15 50  1  0  0  0  0
 16 17  1  0  0  0  0
 16 51  1  0  0  0  0
 16 52  1  0  0  0  0
 17 18  1  0  0  0  0
 17 53  1  0  0  0  0
 17 54  1  0  0  0  0
 18 19  1  0  0  0  0
 18 55  1  0  0  0  0
 18 56  1  0  0  0  0
 19 20  2  0  0  0  0
 19 21  1  0  0  0  0
M  CHG  1  21  -1
M  END
$$$$
