CHEBI:16130
 OpenBabel04242413523D

 28 29  0  0  0  0  0  0  0  0999 V2000
   -1.8110    2.3833   -2.2518 Cl  0  0  0  0  0  0  0  0  0  0  0  0
   -0.2525    1.8991   -1.7101 C   0  0  0  0  0  0  0  0  0  0  0  0
   -0.1134    0.7614   -0.9243 C   0  0  0  0  0  0  0  0  0  0  0  0
    1.1548    0.3733   -0.4833 C   0  0  0  0  0  0  0  0  0  0  0  0
    2.3030    1.1241   -0.8104 C   0  0  0  0  0  0  0  0  0  0  0  0
    3.6687    0.6437   -0.2830 C   0  0  0  0  0  0  0  0  0  0  0  0
    4.2985   -0.4032   -1.2169 C   0  0  0  0  0  0  0  0  0  0  0  0
    4.4894   -0.1628   -2.5881 C   0  0  0  0  0  0  0  0  0  0  0  0
    5.0876   -1.1246   -3.4079 C   0  0  0  0  0  0  0  0  0  0  0  0
    5.4990   -2.3391   -2.8676 C   0  0  0  0  0  0  0  0  0  0  0  0
    6.2421   -3.5177   -3.8758 Cl  0  0  0  0  0  0  0  0  0  0  0  0
    5.3121   -2.6030   -1.5147 C   0  0  0  0  0  0  0  0  0  0  0  0
    4.7128   -1.6429   -0.6946 C   0  0  0  0  0  0  0  0  0  0  0  0
    4.6785    1.7255    0.2540 C   0  0  0  0  0  0  0  0  0  0  0  0
    3.8528    2.9040    1.3497 Cl  0  0  0  0  0  0  0  0  0  0  0  0
    5.9680    0.9409    1.2655 Cl  0  0  0  0  0  0  0  0  0  0  0  0
    5.5301    2.6611   -1.0235 Cl  0  0  0  0  0  0  0  0  0  0  0  0
    2.1372    2.2588   -1.6198 C   0  0  0  0  0  0  0  0  0  0  0  0
    0.8673    2.6457   -2.0631 C   0  0  0  0  0  0  0  0  0  0  0  0
   -0.9844    0.1711   -0.6511 H   0  0  0  0  0  0  0  0  0  0  0  0
    1.2365   -0.5265    0.1249 H   0  0  0  0  0  0  0  0  0  0  0  0
    3.3920    0.0868    0.6282 H   0  0  0  0  0  0  0  0  0  0  0  0
    4.1786    0.7744   -3.0448 H   0  0  0  0  0  0  0  0  0  0  0  0
    5.2299   -0.9174   -4.4654 H   0  0  0  0  0  0  0  0  0  0  0  0
    5.6330   -3.5510   -1.0903 H   0  0  0  0  0  0  0  0  0  0  0  0
    4.5827   -1.8750    0.3612 H   0  0  0  0  0  0  0  0  0  0  0  0
    2.9776    2.8708   -1.9326 H   0  0  0  0  0  0  0  0  0  0  0  0
    0.7615    3.5317   -2.6843 H   0  0  0  0  0  0  0  0  0  0  0  0
  1  2  1  0  0  0  0
  2  3  1  0  0  0  0
  2 19  2  0  0  0  0
  3  4  2  0  0  0  0
  3 20  1  0  0  0  0
  4  5  1  0  0  0  0
  4 21  1  0  0  0  0
  5  6  1  0  0  0  0
  5 18  2  0  0  0  0
  6  7  1  0  0  0  0
  6 14  1  0  0  0  0
  6 22  1  0  0  0  0
  7  8  1  0  0  0  0
  7 13  2  0  0  0  0
  8  9  2  0  0  0  0
  8 23  1  0  0  0  0
  9 10  1  0  0  0  0
  9 24  1  0  0  0  0
 10 11  1  0  0  0  0
 10 12  2  0  0  0  0
 12 13  1  0  0  0  0
 12 25  1  0  0  0  0
 13 26  1  0  0  0  0
 14 15  1  0  0  0  0
 14 16  1  0  0  0  0
 14 17  1  0  0  0  0
 18 19  1  0  0  0  0
 18 27  1  0  0  0  0
 19 28  1  0  0  0  0
M  END
$$$$
