CHEBI:17145
 OpenBabel04242415553D

 38 40  0  0  1  0  0  0  0  0999 V2000
    4.7121   -2.9379    1.5798 O   0  0  0  0  0  0  0  0  0  0  0  0
    3.7835   -2.1855    1.3073 C   0  0  0  0  0  0  0  0  0  0  0  0
    2.6407   -2.6395    0.6853 N   0  0  0  0  0  0  0  0  0  0  0  0
    1.5320   -1.8857    0.3708 C   0  0  0  0  0  0  0  0  0  0  0  0
    0.5249   -2.3420   -0.1551 O   0  0  0  0  0  0  0  0  0  0  0  0
    1.6580   -0.4745    0.7417 C   0  0  0  0  0  0  0  0  0  0  0  0
    0.7421    0.5280    0.6458 N   0  0  0  0  0  0  0  0  0  0  0  0
    1.2905    1.6813    1.2329 C   0  0  0  0  0  0  0  0  0  0  0  0
    0.7129    2.7411    1.4064 O   0  0  0  0  0  0  0  0  0  0  0  0
    2.6189    1.3194    1.5920 N   0  0  0  0  0  0  0  0  0  0  0  0
    3.4983    2.1416    2.3908 C   0  0  2  0  0  0  0  0  0  0  0  0
    3.1581    3.5283    2.2245 O   0  0  0  0  0  0  0  0  0  0  0  0
    4.3644    4.3150    2.1291 C   0  0  2  0  0  0  0  0  0  0  0  0
    4.4518    4.8915    0.7144 C   0  0  0  0  0  0  0  0  0  0  0  0
    3.5023    5.9323    0.5454 O   0  0  0  0  0  0  0  0  0  0  0  0
    2.0277    5.5560    0.0453 P   0  0  0  0  0  0  0  0  0  0  0  0
    1.9223    4.4780   -0.9786 O   0  0  0  0  0  0  0  0  0  0  0  0
    1.1807    5.3188    1.3721 O   0  0  0  0  0  0  0  0  0  0  0  0
    1.4250    6.9486   -0.4547 O   0  0  0  0  0  0  0  0  0  0  0  0
    5.5207    3.3729    2.4516 C   0  0  1  0  0  0  0  0  0  0  0  0
    5.7516    3.2869    3.8686 O   0  0  0  0  0  0  0  0  0  0  0  0
    4.9802    2.0280    2.0042 C   0  0  1  0  0  0  0  0  0  0  0  0
    5.6471    0.9429    2.6539 O   0  0  0  0  0  0  0  0  0  0  0  0
    2.7700   -0.0246    1.3253 C   0  0  0  0  0  0  0  0  0  0  0  0
    3.8105   -0.8447    1.6069 N   0  0  0  0  0  0  0  0  0  0  0  0
    2.6071   -3.6236    0.4663 H   0  0  0  0  0  0  0  0  0  0  0  0
   -0.1978    0.4425    0.2869 H   0  0  0  0  0  0  0  0  0  0  0  0
    3.3307    1.8743    3.4413 H   0  0  0  0  0  0  0  0  0  0  0  0
    4.2779    5.1239    2.8627 H   0  0  0  0  0  0  0  0  0  0  0  0
    4.2990    4.1217   -0.0490 H   0  0  0  0  0  0  0  0  0  0  0  0
    5.4386    5.3360    0.5508 H   0  0  0  0  0  0  0  0  0  0  0  0
    1.1262    4.3524    1.5782 H   0  0  0  0  0  0  0  0  0  0  0  0
    0.5348    6.8161   -0.8232 H   0  0  0  0  0  0  0  0  0  0  0  0
    6.4719    3.6373    1.9811 H   0  0  0  0  0  0  0  0  0  0  0  0
    6.0045    4.1760    4.1824 H   0  0  0  0  0  0  0  0  0  0  0  0
    5.0944    1.9122    0.9199 H   0  0  0  0  0  0  0  0  0  0  0  0
    5.9435    1.3078    3.5180 H   0  0  0  0  0  0  0  0  0  0  0  0
    4.6520   -0.4909    2.0632 H   0  0  0  0  0  0  0  0  0  0  0  0
  1  2  2  0  0  0  0
  2  3  1  0  0  0  0
  2 25  1  0  0  0  0
  3  4  1  0  0  0  0
  3 26  1  0  0  0  0
  4  5  2  0  0  0  0
  4  6  1  0  0  0  0
  6  7  1  0  0  0  0
  6 24  2  0  0  0  0
  7  8  1  0  0  0  0
  7 27  1  0  0  0  0
  8  9  2  0  0  0  0
  8 10  1  0  0  0  0
 10 11  1  0  0  0  0
 10 24  1  0  0  0  0
 11 12  1  0  0  0  0
 11 22  1  0  0  0  0
 11 28  1  1  0  0  0
 12 13  1  0  0  0  0
 13 14  1  0  0  0  0
 13 20  1  0  0  0  0
 13 29  1  1  0  0  0
 14 15  1  0  0  0  0
 14 30  1  0  0  0  0
 14 31  1  0  0  0  0
 15 16  1  0  0  0  0
 16 17  2  0  0  0  0
 16 18  1  0  0  0  0
 16 19  1  0  0  0  0
 18 32  1  0  0  0  0
 19 33  1  0  0  0  0
 20 21  1  0  0  0  0
 20 22  1  0  0  0  0
 20 34  1  6  0  0  0
 21 35  1  0  0  0  0
 22 23  1  0  0  0  0
 22 36  1  6  0  0  0
 23 37  1  0  0  0  0
 24 25  1  0  0  0  0
 25 38  1  0  0  0  0
M  END
$$$$
