CHEBI:16892
 OpenBabel04242415303D

 19 19  0  0  0  0  0  0  0  0999 V2000
   -2.3377    1.1852    0.0154 C   0  0  0  0  0  0  0  0  0  0  0  0
   -1.1015    0.3424    0.0113 C   0  0  0  0  0  0  0  0  0  0  0  0
   -1.2489   -0.9909    0.0497 N   0  0  0  0  0  0  0  0  0  0  0  0
   -0.1124   -1.7106    0.0322 C   0  0  0  0  0  0  0  0  0  0  0  0
    1.1536   -1.1589    0.0004 C   0  0  0  0  0  0  0  0  0  0  0  0
    2.3574   -2.0378   -0.0536 C   0  0  0  0  0  0  0  0  0  0  0  0
    2.4821   -2.6253   -1.3419 O   0  0  0  0  0  0  0  0  0  0  0  0
    1.1880    0.2217   -0.0278 C   0  0  0  0  0  0  0  0  0  0  0  0
    2.3853    0.9331   -0.0947 N   0  0  0  0  0  0  0  0  0  0  0  0
    0.0828    0.9803   -0.0286 N   0  0  0  0  0  0  0  0  0  0  0  0
   -3.2383    0.5636    0.0110 H   0  0  0  0  0  0  0  0  0  0  0  0
   -2.3553    1.8260   -0.8713 H   0  0  0  0  0  0  0  0  0  0  0  0
   -2.3553    1.8157    0.9093 H   0  0  0  0  0  0  0  0  0  0  0  0
   -0.2546   -2.7889    0.0343 H   0  0  0  0  0  0  0  0  0  0  0  0
    2.2731   -2.8427    0.6849 H   0  0  0  0  0  0  0  0  0  0  0  0
    3.2833   -1.5002    0.1708 H   0  0  0  0  0  0  0  0  0  0  0  0
    2.4125   -1.9008   -1.9899 H   0  0  0  0  0  0  0  0  0  0  0  0
    2.9945    0.7207    0.6872 H   0  0  0  0  0  0  0  0  0  0  0  0
    2.1340    1.9205   -0.0937 H   0  0  0  0  0  0  0  0  0  0  0  0
  1  2  1  0  0  0  0
  1 11  1  0  0  0  0
  1 12  1  0  0  0  0
  1 13  1  0  0  0  0
  2  3  1  0  0  0  0
  2 10  2  0  0  0  0
  3  4  2  0  0  0  0
  4  5  1  0  0  0  0
  4 14  1  0  0  0  0
  5  6  1  0  0  0  0
  5  8  2  0  0  0  0
  6  7  1  0  0  0  0
  6 15  1  0  0  0  0
  6 16  1  0  0  0  0
  7 17  1  0  0  0  0
  8  9  1  0  0  0  0
  8 10  1  0  0  0  0
  9 18  1  0  0  0  0
  9 19  1  0  0  0  0
M  END
$$$$
