CHEBI:16734
 OpenBabel04242415083D

 32 33  0  0  1  0  0  0  0  0999 V2000
    7.4094   -1.5732   -4.2858 C   0  0  0  0  0  0  0  0  0  0  0  0
    6.8524   -0.8750   -3.0777 C   0  0  0  0  0  0  0  0  0  0  0  0
    7.5429   -0.2990   -2.2422 O   0  0  0  0  0  0  0  0  0  0  0  0
    5.4857   -0.8868   -2.9965 N   0  0  0  0  0  0  0  0  0  0  0  0
    4.7583   -0.5183   -1.7637 C   0  0  2  0  0  0  0  0  0  0  0  0
    3.3057   -1.0415   -1.7938 C   0  0  0  0  0  0  0  0  0  0  0  0
    3.2322   -2.5377   -1.9076 C   0  0  0  0  0  0  0  0  0  0  0  0
    3.3408   -3.4395   -0.8667 C   0  0  0  0  0  0  0  0  0  0  0  0
    3.2661   -4.7049   -1.3829 N   0  0  0  0  0  0  0  0  0  0  0  0
    3.1207   -4.6527   -2.7493 C   0  0  0  0  0  0  0  0  0  0  0  0
    3.0320   -5.6894   -3.6856 C   0  0  0  0  0  0  0  0  0  0  0  0
    2.8753   -5.3378   -5.0293 C   0  0  0  0  0  0  0  0  0  0  0  0
    2.7973   -4.0028   -5.4168 C   0  0  0  0  0  0  0  0  0  0  0  0
    2.8839   -2.9787   -4.4671 C   0  0  0  0  0  0  0  0  0  0  0  0
    3.0615   -3.3055   -3.1059 C   0  0  0  0  0  0  0  0  0  0  0  0
    4.7331    1.0011   -1.4905 C   0  0  0  0  0  0  0  0  0  0  0  0
    3.7526    1.6059   -1.0755 O   0  0  0  0  0  0  0  0  0  0  0  0
    5.9263    1.6248   -1.6209 O   0  0  0  0  0  0  0  0  0  0  0  0
    8.4754   -1.3495   -4.3798 H   0  0  0  0  0  0  0  0  0  0  0  0
    6.8986   -1.2271   -5.1890 H   0  0  0  0  0  0  0  0  0  0  0  0
    7.2772   -2.6531   -4.1777 H   0  0  0  0  0  0  0  0  0  0  0  0
    5.0229   -1.5588   -3.5981 H   0  0  0  0  0  0  0  0  0  0  0  0
    5.2926   -0.9762   -0.9206 H   0  0  0  0  0  0  0  0  0  0  0  0
    2.7776   -0.7399   -0.8793 H   0  0  0  0  0  0  0  0  0  0  0  0
    2.7593   -0.5818   -2.6276 H   0  0  0  0  0  0  0  0  0  0  0  0
    3.4691   -3.2884    0.1975 H   0  0  0  0  0  0  0  0  0  0  0  0
    3.3172   -5.5587   -0.8442 H   0  0  0  0  0  0  0  0  0  0  0  0
    3.0818   -6.7314   -3.3864 H   0  0  0  0  0  0  0  0  0  0  0  0
    2.8045   -6.1206   -5.7814 H   0  0  0  0  0  0  0  0  0  0  0  0
    2.6623   -3.7528   -6.4665 H   0  0  0  0  0  0  0  0  0  0  0  0
    2.8087   -1.9426   -4.7850 H   0  0  0  0  0  0  0  0  0  0  0  0
    6.6700    1.0005   -1.8102 H   0  0  0  0  0  0  0  0  0  0  0  0
  1  2  1  0  0  0  0
  1 19  1  0  0  0  0
  1 20  1  0  0  0  0
  1 21  1  0  0  0  0
  2  3  2  0  0  0  0
  2  4  1  0  0  0  0
  4 22  1  0  0  0  0
  5 16  1  0  0  0  0
  5  6  1  0  0  0  0
  5  4  1  0  0  0  0
  5 23  1  1  0  0  0
  6  7  1  0  0  0  0
  6 24  1  0  0  0  0
  6 25  1  0  0  0  0
  7  8  2  0  0  0  0
  7 15  1  0  0  0  0
  8  9  1  0  0  0  0
  8 26  1  0  0  0  0
  9 10  1  0  0  0  0
  9 27  1  0  0  0  0
 10 11  1  0  0  0  0
 10 15  2  0  0  0  0
 11 12  2  0  0  0  0
 11 28  1  0  0  0  0
 12 13  1  0  0  0  0
 12 29  1  0  0  0  0
 13 14  2  0  0  0  0
 13 30  1  0  0  0  0
 14 15  1  0  0  0  0
 14 31  1  0  0  0  0
 16 17  2  0  0  0  0
 16 18  1  0  0  0  0
 18 32  1  0  0  0  0
M  END
$$$$
