CHEBI:17757
 OpenBabel04242417143D

 31 31  0  0  0  0  0  0  0  0999 V2000
    2.4516    3.0630    1.9623 H   0  0  0  0  0  0  0  0  0  0  0  0
    2.4919    2.1699    2.5945 C   0  0  0  0  0  0  0  0  0  0  0  0
    3.6637    1.3076    2.2044 C   0  0  0  0  0  0  0  0  0  0  0  0
    3.6278    0.8153    0.7835 C   0  0  0  0  0  0  0  0  0  0  0  0
    4.6466    1.0394    3.0870 C   0  0  0  0  0  0  0  0  0  0  0  0
    5.8645    0.1768    2.8694 C   0  0  0  0  0  0  0  0  0  0  0  0
    7.1319    0.9339    2.5500 C   0  0  0  0  0  0  0  0  0  0  0  0
    7.2336    2.2544    2.3547 C   0  0  0  0  0  0  0  0  0  0  0  0
    8.5088    2.9201    2.0501 C   0  0  0  0  0  0  0  0  0  0  0  0
    8.5308    4.1300    1.8539 O   0  0  0  0  0  0  0  0  0  0  0  0
    9.7423    2.0871    1.9955 C   0  0  0  0  0  0  0  0  0  0  0  0
   10.9953    2.8794    1.7502 C   0  0  0  0  0  0  0  0  0  0  0  0
    9.6656    0.7536    2.1685 C   0  0  0  0  0  0  0  0  0  0  0  0
   10.8199   -0.2083    2.1038 C   0  0  0  0  0  0  0  0  0  0  0  0
    8.3523    0.0898    2.4418 C   0  0  0  0  0  0  0  0  0  0  0  0
    8.2819   -1.1277    2.5825 O   0  0  0  0  0  0  0  0  0  0  0  0
    1.5561    1.6145    2.4738 H   0  0  0  0  0  0  0  0  0  0  0  0
    2.5495    2.5030    3.6361 H   0  0  0  0  0  0  0  0  0  0  0  0
    3.4384    1.6497    0.0997 H   0  0  0  0  0  0  0  0  0  0  0  0
    2.8265    0.0797    0.6606 H   0  0  0  0  0  0  0  0  0  0  0  0
    4.5651    0.3534    0.4640 H   0  0  0  0  0  0  0  0  0  0  0  0
    4.5742    1.4617    4.0898 H   0  0  0  0  0  0  0  0  0  0  0  0
    5.6755   -0.5659    2.0861 H   0  0  0  0  0  0  0  0  0  0  0  0
    6.0163   -0.3976    3.7932 H   0  0  0  0  0  0  0  0  0  0  0  0
    6.3792    2.9200    2.4054 H   0  0  0  0  0  0  0  0  0  0  0  0
   11.0465    3.7372    2.4305 H   0  0  0  0  0  0  0  0  0  0  0  0
   11.0110    3.2534    0.7212 H   0  0  0  0  0  0  0  0  0  0  0  0
   11.9113    2.3087    1.9144 H   0  0  0  0  0  0  0  0  0  0  0  0
   11.7615    0.2556    1.8044 H   0  0  0  0  0  0  0  0  0  0  0  0
   10.6180   -0.9977    1.3710 H   0  0  0  0  0  0  0  0  0  0  0  0
   10.9783   -0.6756    3.0816 H   0  0  0  0  0  0  0  0  0  0  0  0
  1  2  1  0  0  0  0
  2  3  1  0  0  0  0
  2 17  1  0  0  0  0
  2 18  1  0  0  0  0
  3  4  1  0  0  0  0
  3  5  2  0  0  0  0
  4 19  1  0  0  0  0
  4 20  1  0  0  0  0
  4 21  1  0  0  0  0
  5  6  1  0  0  0  0
  5 22  1  0  0  0  0
  6  7  1  0  0  0  0
  6 23  1  0  0  0  0
  6 24  1  0  0  0  0
  7  8  2  0  0  0  0
  7 15  1  0  0  0  0
  8  9  1  0  0  0  0
  8 25  1  0  0  0  0
  9 10  2  0  0  0  0
  9 11  1  0  0  0  0
 11 12  1  0  0  0  0
 11 13  2  0  0  0  0
 12 26  1  0  0  0  0
 12 27  1  0  0  0  0
 12 28  1  0  0  0  0
 13 14  1  0  0  0  0
 13 15  1  0  0  0  0
 14 29  1  0  0  0  0
 14 30  1  0  0  0  0
 14 31  1  0  0  0  0
 15 16  2  0  0  0  0
M  END
$$$$
