CHEBI:7025
 OpenBabel04242411083D

 79 80  0  0  1  0  0  0  0  0999 V2000
    5.3732    3.4092    1.2917 C   0  0  0  0  0  0  0  0  0  0  0  0
    5.3559    4.4962    2.3363 C   0  0  0  0  0  0  0  0  0  0  0  0
    6.4568    5.0984    2.8306 C   0  0  0  0  0  0  0  0  0  0  0  0
    7.8572    4.9128    2.3946 C   0  0  0  0  0  0  0  0  0  0  0  0
    8.7993    5.0124    3.1648 O   0  0  0  0  0  0  0  0  0  0  0  0
    7.9222    4.7301    1.0551 O   0  0  0  0  0  0  0  0  0  0  0  0
    9.2410    4.5788    0.5122 C   0  0  0  0  0  0  0  0  0  0  0  0
    9.8334    5.9492    0.1986 C   0  0  0  0  0  0  0  0  0  0  0  0
   11.2789    5.8804   -0.2907 C   0  0  0  0  0  0  0  0  0  0  0  0
   11.4271    5.1777   -1.6434 C   0  0  0  0  0  0  0  0  0  0  0  0
   12.8541    5.2546   -2.1967 C   0  0  0  0  0  0  0  0  0  0  0  0
   13.8555    4.4426   -1.3715 C   0  0  0  0  0  0  0  0  0  0  0  0
   15.2793    4.4674   -1.9387 C   0  0  0  0  0  0  0  0  0  0  0  0
   15.9253    5.8515   -1.9946 C   0  0  0  0  0  0  0  0  0  0  0  0
   15.9645    6.5605   -0.6686 C   0  0  0  0  0  0  0  0  0  0  0  0
   15.6523    7.7232   -0.4713 O   0  0  0  0  0  0  0  0  0  0  0  0
   16.4497    5.8037    0.3320 O   0  0  0  0  0  0  0  0  0  0  0  0
    3.9967    4.8439    2.9083 C   0  0  0  0  0  0  0  0  0  0  0  0
    3.3031    6.0522    2.2443 C   0  0  2  0  0  0  0  0  0  0  0  0
    2.0843    6.4043    2.9279 O   0  0  0  0  0  0  0  0  0  0  0  0
    1.0499    5.4186    2.8554 C   0  0  0  0  0  0  0  0  0  0  0  0
    0.6552    5.0613    1.4144 C   0  0  2  0  0  0  0  0  0  0  0  0
   -0.2499    3.8133    1.3622 C   0  0  0  0  0  0  0  0  0  0  0  0
   -1.5838    4.0094    2.0139 C   0  0  2  0  0  0  0  0  0  0  0  0
   -1.5551    4.0882    3.4402 O   0  0  0  0  0  0  0  0  0  0  0  0
   -2.1698    2.9111    2.8886 C   0  0  1  0  0  0  0  0  0  0  0  0
   -3.6284    2.7781    3.2767 C   0  0  1  0  0  0  0  0  0  0  0  0
   -4.5057    3.8976    2.7040 C   0  0  0  0  0  0  0  0  0  0  0  0
   -4.2211    1.4000    2.8905 C   0  0  2  0  0  0  0  0  0  0  0  0
   -3.5316    0.2120    3.5550 C   0  0  0  0  0  0  0  0  0  0  0  0
   -4.2187    1.2151    1.4762 O   0  0  0  0  0  0  0  0  0  0  0  0
    1.9033    4.8282    0.5442 C   0  0  1  0  0  0  0  0  0  0  0  0
    1.5179    4.8225   -0.8352 O   0  0  0  0  0  0  0  0  0  0  0  0
    2.9699    5.9070    0.7577 C   0  0  1  0  0  0  0  0  0  0  0  0
    2.4327    7.1528    0.2600 O   0  0  0  0  0  0  0  0  0  0  0  0
    4.6183    2.6475    1.5141 H   0  0  0  0  0  0  0  0  0  0  0  0
    6.3284    2.8773    1.2555 H   0  0  0  0  0  0  0  0  0  0  0  0
    5.1635    3.8187    0.3001 H   0  0  0  0  0  0  0  0  0  0  0  0
    6.3762    5.8027    3.6547 H   0  0  0  0  0  0  0  0  0  0  0  0
    9.1315    3.9899   -0.4039 H   0  0  0  0  0  0  0  0  0  0  0  0
    9.8804    4.0016    1.1908 H   0  0  0  0  0  0  0  0  0  0  0  0
    9.7977    6.5759    1.0983 H   0  0  0  0  0  0  0  0  0  0  0  0
    9.2034    6.4613   -0.5390 H   0  0  0  0  0  0  0  0  0  0  0  0
   11.8842    5.3751    0.4700 H   0  0  0  0  0  0  0  0  0  0  0  0
   11.6637    6.9042   -0.3737 H   0  0  0  0  0  0  0  0  0  0  0  0
   10.7508    5.6495   -2.3667 H   0  0  0  0  0  0  0  0  0  0  0  0
   11.1269    4.1268   -1.5645 H   0  0  0  0  0  0  0  0  0  0  0  0
   13.1582    6.3057   -2.2478 H   0  0  0  0  0  0  0  0  0  0  0  0
   12.8491    4.8737   -3.2254 H   0  0  0  0  0  0  0  0  0  0  0  0
   13.5201    3.3985   -1.3331 H   0  0  0  0  0  0  0  0  0  0  0  0
   13.8751    4.7979   -0.3363 H   0  0  0  0  0  0  0  0  0  0  0  0
   15.2724    4.0414   -2.9494 H   0  0  0  0  0  0  0  0  0  0  0  0
   15.9020    3.8019   -1.3280 H   0  0  0  0  0  0  0  0  0  0  0  0
   15.3887    6.4889   -2.7057 H   0  0  0  0  0  0  0  0  0  0  0  0
   16.9554    5.7685   -2.3589 H   0  0  0  0  0  0  0  0  0  0  0  0
   16.4311    6.3994    1.1105 H   0  0  0  0  0  0  0  0  0  0  0  0
    4.0948    5.0600    3.9818 H   0  0  0  0  0  0  0  0  0  0  0  0
    3.3596    3.9528    2.8841 H   0  0  0  0  0  0  0  0  0  0  0  0
    3.9523    6.9288    2.3634 H   0  0  0  0  0  0  0  0  0  0  0  0
    0.1913    5.8540    3.3756 H   0  0  0  0  0  0  0  0  0  0  0  0
    1.3462    4.5340    3.4288 H   0  0  0  0  0  0  0  0  0  0  0  0
    0.0969    5.9083    0.9920 H   0  0  0  0  0  0  0  0  0  0  0  0
   -0.4358    3.5339    0.3179 H   0  0  0  0  0  0  0  0  0  0  0  0
    0.2757    2.9632    1.8164 H   0  0  0  0  0  0  0  0  0  0  0  0
   -2.2272    4.6882    1.4719 H   0  0  0  0  0  0  0  0  0  0  0  0
   -1.6037    2.0001    3.0271 H   0  0  0  0  0  0  0  0  0  0  0  0
   -3.6759    2.8559    4.3715 H   0  0  0  0  0  0  0  0  0  0  0  0
   -4.5030    3.8937    1.6088 H   0  0  0  0  0  0  0  0  0  0  0  0
   -4.1585    4.8813    3.0376 H   0  0  0  0  0  0  0  0  0  0  0  0
   -5.5428    3.7870    3.0384 H   0  0  0  0  0  0  0  0  0  0  0  0
   -5.2722    1.3823    3.2031 H   0  0  0  0  0  0  0  0  0  0  0  0
   -2.5380    0.0261    3.1356 H   0  0  0  0  0  0  0  0  0  0  0  0
   -4.1082   -0.7019    3.3740 H   0  0  0  0  0  0  0  0  0  0  0  0
   -3.4437    0.3541    4.6363 H   0  0  0  0  0  0  0  0  0  0  0  0
   -3.2958    1.1736    1.1740 H   0  0  0  0  0  0  0  0  0  0  0  0
    2.3295    3.8422    0.7587 H   0  0  0  0  0  0  0  0  0  0  0  0
    1.5415    5.7614   -1.1165 H   0  0  0  0  0  0  0  0  0  0  0  0
    3.8558    5.7030    0.1509 H   0  0  0  0  0  0  0  0  0  0  0  0
    1.9724    7.5720    1.0156 H   0  0  0  0  0  0  0  0  0  0  0  0
  1  2  1  0  0  0  0
  1 36  1  0  0  0  0
  1 37  1  0  0  0  0
  1 38  1  0  0  0  0
  2  3  2  0  0  0  0
  2 18  1  0  0  0  0
  3  4  1  0  0  0  0
  3 39  1  0  0  0  0
  4  5  2  0  0  0  0
  4  6  1  0  0  0  0
  6  7  1  0  0  0  0
  7  8  1  0  0  0  0
  7 40  1  0  0  0  0
  7 41  1  0  0  0  0
  8  9  1  0  0  0  0
  8 42  1  0  0  0  0
  8 43  1  0  0  0  0
  9 10  1  0  0  0  0
  9 44  1  0  0  0  0
  9 45  1  0  0  0  0
 10 11  1  0  0  0  0
 10 46  1  0  0  0  0
 10 47  1  0  0  0  0
 11 12  1  0  0  0  0
 11 48  1  0  0  0  0
 11 49  1  0  0  0  0
 12 13  1  0  0  0  0
 12 50  1  0  0  0  0
 12 51  1  0  0  0  0
 13 14  1  0  0  0  0
 13 52  1  0  0  0  0
 13 53  1  0  0  0  0
 14 15  1  0  0  0  0
 14 54  1  0  0  0  0
 14 55  1  0  0  0  0
 15 16  2  0  0  0  0
 15 17  1  0  0  0  0
 17 56  1  0  0  0  0
 18 57  1  0  0  0  0
 18 58  1  0  0  0  0
 19 20  1  0  0  0  0
 19 34  1  0  0  0  0
 19 18  1  0  0  0  0
 19 59  1  1  0  0  0
 20 21  1  0  0  0  0
 21 22  1  0  0  0  0
 21 60  1  0  0  0  0
 21 61  1  0  0  0  0
 22 32  1  0  0  0  0
 22 23  1  0  0  0  0
 22 62  1  6  0  0  0
 23 24  1  0  0  0  0
 23 63  1  0  0  0  0
 23 64  1  0  0  0  0
 24 25  1  0  0  0  0
 24 26  1  0  0  0  0
 24 65  1  6  0  0  0
 25 26  1  0  0  0  0
 26 27  1  0  0  0  0
 26 66  1  1  0  0  0
 27 28  1  0  0  0  0
 27 67  1  1  0  0  0
 28 68  1  0  0  0  0
 28 69  1  0  0  0  0
 28 70  1  0  0  0  0
 29 31  1  0  0  0  0
 29 30  1  0  0  0  0
 29 27  1  0  0  0  0
 29 71  1  1  0  0  0
 30 72  1  0  0  0  0
 30 73  1  0  0  0  0
 30 74  1  0  0  0  0
 31 75  1  0  0  0  0
 32 33  1  0  0  0  0
 32 34  1  0  0  0  0
 32 76  1  1  0  0  0
 33 77  1  0  0  0  0
 34 35  1  0  0  0  0
 34 78  1  6  0  0  0
 35 79  1  0  0  0  0
M  END
$$$$
