CHEBI:17614
 OpenBabel04242416563D

 90 92  0  0  1  0  0  0  0  0999 V2000
   -0.4189   -4.1202    4.0053 C   0  0  0  0  0  0  0  0  0  0  0  0
    0.4389   -5.2950    3.9387 N   0  0  0  0  0  0  0  0  0  0  0  0
    0.0807   -6.5690    4.4524 C   0  0  0  0  0  0  0  0  0  0  0  0
    0.7555   -7.7126    4.1363 C   0  0  0  0  0  0  0  0  0  0  0  0
    0.4262   -8.9560    4.6123 N   0  0  0  0  0  0  0  0  0  0  0  0
   -0.5815   -9.0683    5.4099 C   0  0  0  0  0  0  0  0  0  0  0  0
   -0.9328  -10.2800    5.9059 N   0  0  0  0  0  0  0  0  0  0  0  0
   -1.3427   -8.0152    5.7878 N   0  0  0  0  0  0  0  0  0  0  0  0
   -1.0794   -6.7379    5.3936 C   0  0  0  0  0  0  0  0  0  0  0  0
   -1.7613   -5.8060    5.8155 O   0  0  0  0  0  0  0  0  0  0  0  0
    1.8420   -7.6361    3.2586 N   0  0  0  0  0  0  0  0  0  0  0  0
    2.0172   -6.4569    2.4105 C   0  0  0  0  0  0  0  0  0  0  0  0
    1.7460   -5.1625    3.2244 C   0  0  2  0  0  0  0  0  0  0  0  0
    2.9021   -4.9336    4.2365 C   0  0  0  0  0  0  0  0  0  0  0  0
    2.7054   -3.6758    4.9820 N   0  0  0  0  0  0  0  0  0  0  0  0
    3.6653   -3.3268    5.9451 C   0  0  0  0  0  0  0  0  0  0  0  0
    3.7028   -1.9907    6.3635 C   0  0  0  0  0  0  0  0  0  0  0  0
    4.5392   -1.5687    7.4063 C   0  0  0  0  0  0  0  0  0  0  0  0
    5.3460   -2.4951    8.0738 C   0  0  0  0  0  0  0  0  0  0  0  0
    6.2048   -2.1578    9.2491 C   0  0  0  0  0  0  0  0  0  0  0  0
    6.8285   -3.0364    9.8336 O   0  0  0  0  0  0  0  0  0  0  0  0
    6.2549   -0.8390    9.6602 N   0  0  0  0  0  0  0  0  0  0  0  0
    7.1544   -0.4419   10.7539 C   0  0  1  0  0  0  0  0  0  0  0  0
    8.5943   -0.2284   10.2819 C   0  0  0  0  0  0  0  0  0  0  0  0
    8.7527    0.8796    9.2392 C   0  0  0  0  0  0  0  0  0  0  0  0
   10.2195    1.1265    8.9519 C   0  0  0  0  0  0  0  0  0  0  0  0
   11.0664    0.2433    8.9530 O   0  0  0  0  0  0  0  0  0  0  0  0
   10.5246    2.4433    8.6840 N   0  0  0  0  0  0  0  0  0  0  0  0
   11.8983    2.8626    8.3370 C   0  0  1  0  0  0  0  0  0  0  0  0
   11.8199    3.9817    7.2935 C   0  0  0  0  0  0  0  0  0  0  0  0
   13.1542    4.3149    6.6215 C   0  0  0  0  0  0  0  0  0  0  0  0
   12.9225    5.4051    5.6011 C   0  0  0  0  0  0  0  0  0  0  0  0
   12.9494    6.6001    5.8815 O   0  0  0  0  0  0  0  0  0  0  0  0
   12.4958    4.9674    4.3725 N   0  0  0  0  0  0  0  0  0  0  0  0
   12.2598    5.8897    3.2449 C   0  0  1  0  0  0  0  0  0  0  0  0
   12.1432    5.0923    1.9316 C   0  0  0  0  0  0  0  0  0  0  0  0
   10.9773    4.0934    1.9087 C   0  0  0  0  0  0  0  0  0  0  0  0
   10.9340    3.3304    0.6041 C   0  0  0  0  0  0  0  0  0  0  0  0
   11.5459    3.6297   -0.4043 O   0  0  0  0  0  0  0  0  0  0  0  0
   10.1302    2.2431    0.6694 O   0  0  0  0  0  0  0  0  0  0  0  0
   11.0413    6.8387    3.4021 C   0  0  0  0  0  0  0  0  0  0  0  0
   10.2916    7.1402    2.4815 O   0  0  0  0  0  0  0  0  0  0  0  0
   10.8968    7.4035    4.6203 O   0  0  0  0  0  0  0  0  0  0  0  0
   12.6720    3.3166    9.5907 C   0  0  0  0  0  0  0  0  0  0  0  0
   13.8227    3.7287    9.5722 O   0  0  0  0  0  0  0  0  0  0  0  0
   11.9559    3.2511   10.7367 O   0  0  0  0  0  0  0  0  0  0  0  0
    6.5764    0.7864   11.4677 C   0  0  0  0  0  0  0  0  0  0  0  0
    7.2306    1.6167   12.0793 O   0  0  0  0  0  0  0  0  0  0  0  0
    5.2216    0.8363   11.3903 O   0  0  0  0  0  0  0  0  0  0  0  0
    5.3075   -3.8341    7.6670 C   0  0  0  0  0  0  0  0  0  0  0  0
    4.4704   -4.2446    6.6228 C   0  0  0  0  0  0  0  0  0  0  0  0
   -1.4234   -4.3550    3.6374 H   0  0  0  0  0  0  0  0  0  0  0  0
   -0.0364   -3.3021    3.3859 H   0  0  0  0  0  0  0  0  0  0  0  0
   -0.4881   -3.7466    5.0315 H   0  0  0  0  0  0  0  0  0  0  0  0
   -0.4469  -11.0342    5.4298 H   0  0  0  0  0  0  0  0  0  0  0  0
   -1.9231  -10.4567    6.0065 H   0  0  0  0  0  0  0  0  0  0  0  0
   -2.0841   -8.1296    6.4573 H   0  0  0  0  0  0  0  0  0  0  0  0
    1.9894   -8.5395    2.8185 H   0  0  0  0  0  0  0  0  0  0  0  0
    1.3116   -6.5183    1.5730 H   0  0  0  0  0  0  0  0  0  0  0  0
    3.0292   -6.4505    1.9922 H   0  0  0  0  0  0  0  0  0  0  0  0
    1.7110   -4.3183    2.5246 H   0  0  0  0  0  0  0  0  0  0  0  0
    2.9421   -5.7779    4.9332 H   0  0  0  0  0  0  0  0  0  0  0  0
    3.8542   -4.8848    3.6943 H   0  0  0  0  0  0  0  0  0  0  0  0
    1.8007   -3.7467    5.4572 H   0  0  0  0  0  0  0  0  0  0  0  0
    3.0634   -1.2632    5.8660 H   0  0  0  0  0  0  0  0  0  0  0  0
    4.5054   -0.5205    7.6763 H   0  0  0  0  0  0  0  0  0  0  0  0
    5.9545   -0.1156    9.0203 H   0  0  0  0  0  0  0  0  0  0  0  0
    7.1511   -1.2464   11.5006 H   0  0  0  0  0  0  0  0  0  0  0  0
    8.9854   -1.1677    9.8704 H   0  0  0  0  0  0  0  0  0  0  0  0
    9.2226    0.0081   11.1510 H   0  0  0  0  0  0  0  0  0  0  0  0
    8.2897    1.8076    9.5899 H   0  0  0  0  0  0  0  0  0  0  0  0
    8.2711    0.5979    8.2965 H   0  0  0  0  0  0  0  0  0  0  0  0
    9.7845    3.1383    8.6588 H   0  0  0  0  0  0  0  0  0  0  0  0
   12.4275    1.9939    7.9289 H   0  0  0  0  0  0  0  0  0  0  0  0
   11.4060    4.8897    7.7525 H   0  0  0  0  0  0  0  0  0  0  0  0
   11.1016    3.6891    6.5145 H   0  0  0  0  0  0  0  0  0  0  0  0
   13.5775    3.4301    6.1333 H   0  0  0  0  0  0  0  0  0  0  0  0
   13.8986    4.6853    7.3311 H   0  0  0  0  0  0  0  0  0  0  0  0
   12.7941    4.0297    4.1299 H   0  0  0  0  0  0  0  0  0  0  0  0
   13.1412    6.5405    3.1747 H   0  0  0  0  0  0  0  0  0  0  0  0
   13.0805    4.5452    1.7626 H   0  0  0  0  0  0  0  0  0  0  0  0
   12.0425    5.7885    1.0888 H   0  0  0  0  0  0  0  0  0  0  0  0
   10.0159    4.6005    2.0321 H   0  0  0  0  0  0  0  0  0  0  0  0
   11.1002    3.3680    2.7202 H   0  0  0  0  0  0  0  0  0  0  0  0
    9.6761    2.1272    1.5243 H   0  0  0  0  0  0  0  0  0  0  0  0
   11.6742    7.2534    5.2124 H   0  0  0  0  0  0  0  0  0  0  0  0
   11.0893    2.8287   10.5813 H   0  0  0  0  0  0  0  0  0  0  0  0
    4.8782    0.0141   10.9783 H   0  0  0  0  0  0  0  0  0  0  0  0
    5.9095   -4.5827    8.1808 H   0  0  0  0  0  0  0  0  0  0  0  0
    4.4506   -5.3037    6.3839 H   0  0  0  0  0  0  0  0  0  0  0  0
  1  2  1  0  0  0  0
  1 52  1  0  0  0  0
  1 53  1  0  0  0  0
  1 54  1  0  0  0  0
  2  3  1  0  0  0  0
  2 13  1  0  0  0  0
  3  4  2  0  0  0  0
  3  9  1  0  0  0  0
  4  5  1  0  0  0  0
  4 11  1  0  0  0  0
  5  6  2  0  0  0  0
  6  7  1  0  0  0  0
  6  8  1  0  0  0  0
  7 55  1  0  0  0  0
  7 56  1  0  0  0  0
  8  9  1  0  0  0  0
  8 57  1  0  0  0  0
  9 10  2  0  0  0  0
 11 12  1  0  0  0  0
 11 58  1  0  0  0  0
 12 13  1  0  0  0  0
 12 59  1  0  0  0  0
 12 60  1  0  0  0  0
 13 14  1  0  0  0  0
 13 61  1  6  0  0  0
 14 15  1  0  0  0  0
 14 62  1  0  0  0  0
 14 63  1  0  0  0  0
 15 16  1  0  0  0  0
 15 64  1  0  0  0  0
 16 17  1  0  0  0  0
 16 51  2  0  0  0  0
 17 18  2  0  0  0  0
 17 65  1  0  0  0  0
 18 19  1  0  0  0  0
 18 66  1  0  0  0  0
 19 20  1  0  0  0  0
 19 50  2  0  0  0  0
 20 21  2  0  0  0  0
 20 22  1  0  0  0  0
 22 23  1  0  0  0  0
 22 67  1  0  0  0  0
 23 24  1  0  0  0  0
 23 47  1  0  0  0  0
 23 68  1  1  0  0  0
 24 25  1  0  0  0  0
 24 69  1  0  0  0  0
 24 70  1  0  0  0  0
 25 26  1  0  0  0  0
 25 71  1  0  0  0  0
 25 72  1  0  0  0  0
 26 27  2  0  0  0  0
 26 28  1  0  0  0  0
 28 29  1  0  0  0  0
 28 73  1  0  0  0  0
 29 30  1  0  0  0  0
 29 44  1  0  0  0  0
 29 74  1  6  0  0  0
 30 31  1  0  0  0  0
 30 75  1  0  0  0  0
 30 76  1  0  0  0  0
 31 32  1  0  0  0  0
 31 77  1  0  0  0  0
 31 78  1  0  0  0  0
 32 33  2  0  0  0  0
 32 34  1  0  0  0  0
 34 35  1  0  0  0  0
 34 79  1  0  0  0  0
 35 36  1  0  0  0  0
 35 41  1  0  0  0  0
 35 80  1  6  0  0  0
 36 37  1  0  0  0  0
 36 81  1  0  0  0  0
 36 82  1  0  0  0  0
 37 38  1  0  0  0  0
 37 83  1  0  0  0  0
 37 84  1  0  0  0  0
 38 39  2  0  0  0  0
 38 40  1  0  0  0  0
 40 85  1  0  0  0  0
 41 42  2  0  0  0  0
 41 43  1  0  0  0  0
 43 86  1  0  0  0  0
 44 45  2  0  0  0  0
 44 46  1  0  0  0  0
 46 87  1  0  0  0  0
 47 48  2  0  0  0  0
 47 49  1  0  0  0  0
 49 88  1  0  0  0  0
 50 51  1  0  0  0  0
 50 89  1  0  0  0  0
 51 90  1  0  0  0  0
M  END
$$$$
