CHEBI:15643
 OpenBabel04242412593D

 30 31  0  0  1  0  0  0  0  0999 V2000
    6.4586    2.5324    1.1551 C   0  0  0  0  0  0  0  0  0  0  0  0
    5.8165    1.5282    0.2097 C   0  0  1  0  0  0  0  0  0  0  0  0
    6.4497    1.6496   -1.0832 O   0  0  0  0  0  0  0  0  0  0  0  0
    5.9346    0.0424    0.6216 C   0  0  1  0  0  0  0  0  0  0  0  0
    5.4556   -0.7366   -0.4943 O   0  0  0  0  0  0  0  0  0  0  0  0
    5.1410   -0.3548    1.8874 C   0  0  1  0  0  0  0  0  0  0  0  0
    5.1265   -1.8894    2.1090 C   0  0  0  0  0  0  0  0  0  0  0  0
    6.4247   -2.3328    2.5922 N   0  0  0  0  0  0  0  0  0  0  0  0
    7.0479   -1.5863    3.5578 C   0  0  0  0  0  0  0  0  0  0  0  0
    8.0392   -2.0387    4.2512 N   0  0  0  0  0  0  0  0  0  0  0  0
    8.6336   -1.2765    5.2120 C   0  0  0  0  0  0  0  0  0  0  0  0
    9.7239   -1.8210    5.7998 N   0  0  0  0  0  0  0  0  0  0  0  0
    8.2667   -0.0968    5.5915 N   0  0  0  0  0  0  0  0  0  0  0  0
    7.1696    0.4752    5.0067 C   0  0  0  0  0  0  0  0  0  0  0  0
    6.6830    1.5298    5.3965 O   0  0  0  0  0  0  0  0  0  0  0  0
    6.5391   -0.1985    3.8179 C   0  0  0  0  0  0  0  0  0  0  0  0
    5.6450    0.3792    3.0754 N   0  0  0  0  0  0  0  0  0  0  0  0
    6.5474    3.5111    0.6704 H   0  0  0  0  0  0  0  0  0  0  0  0
    7.4741    2.2230    1.4258 H   0  0  0  0  0  0  0  0  0  0  0  0
    5.8748    2.6659    2.0687 H   0  0  0  0  0  0  0  0  0  0  0  0
    4.7641    1.7867    0.0488 H   0  0  0  0  0  0  0  0  0  0  0  0
    7.4094    1.7278   -0.9354 H   0  0  0  0  0  0  0  0  0  0  0  0
    6.9949   -0.2135    0.7365 H   0  0  0  0  0  0  0  0  0  0  0  0
    5.7109   -0.2238   -1.2909 H   0  0  0  0  0  0  0  0  0  0  0  0
    4.0948   -0.0590    1.7359 H   0  0  0  0  0  0  0  0  0  0  0  0
    4.8594   -2.4347    1.1990 H   0  0  0  0  0  0  0  0  0  0  0  0
    4.3731   -2.1375    2.8667 H   0  0  0  0  0  0  0  0  0  0  0  0
    6.5919   -3.3326    2.6258 H   0  0  0  0  0  0  0  0  0  0  0  0
   10.1974   -2.5083    5.2289 H   0  0  0  0  0  0  0  0  0  0  0  0
   10.3286   -1.1399    6.2412 H   0  0  0  0  0  0  0  0  0  0  0  0
  1  2  1  0  0  0  0
  1 18  1  0  0  0  0
  1 19  1  0  0  0  0
  1 20  1  0  0  0  0
  2  3  1  0  0  0  0
  2  4  1  0  0  0  0
  2 21  1  6  0  0  0
  3 22  1  0  0  0  0
  4  5  1  0  0  0  0
  4 23  1  6  0  0  0
  5 24  1  0  0  0  0
  6  7  1  0  0  0  0
  6 17  1  0  0  0  0
  6  4  1  0  0  0  0
  6 25  1  6  0  0  0
  7  8  1  0  0  0  0
  7 26  1  0  0  0  0
  7 27  1  0  0  0  0
  8  9  1  0  0  0  0
  8 28  1  0  0  0  0
  9 10  2  0  0  0  0
  9 16  1  0  0  0  0
 10 11  1  0  0  0  0
 11 12  1  0  0  0  0
 11 13  2  0  0  0  0
 12 29  1  0  0  0  0
 12 30  1  0  0  0  0
 13 14  1  0  0  0  0
 14 15  2  0  0  0  0
 14 16  1  0  0  0  0
 16 17  2  0  0  0  0
M  END
$$$$
