CHEBI:18081
 OpenBabel04242423303D

 95 95  0  0  0  0  0  0  0  0999 V2000
   19.0391   -3.9961    0.8260 C   0  0  0  0  0  0  0  0  0  0  0  0
   20.3366   -3.8552    1.5797 C   0  0  0  0  0  0  0  0  0  0  0  0
   21.5285   -3.5510    0.7144 C   0  0  0  0  0  0  0  0  0  0  0  0
   20.3766   -4.0355    2.9153 C   0  0  0  0  0  0  0  0  0  0  0  0
   21.5941   -4.0390    3.8050 C   0  0  0  0  0  0  0  0  0  0  0  0
   21.4536   -3.1808    5.0736 C   0  0  0  0  0  0  0  0  0  0  0  0
   20.4083   -3.6687    6.0637 C   0  0  0  0  0  0  0  0  0  0  0  0
   19.2370   -2.7534    6.2880 C   0  0  0  0  0  0  0  0  0  0  0  0
   20.5492   -4.8617    6.6791 C   0  0  0  0  0  0  0  0  0  0  0  0
   19.6064   -5.5184    7.6582 C   0  0  0  0  0  0  0  0  0  0  0  0
   18.8926   -6.7563    7.0730 C   0  0  0  0  0  0  0  0  0  0  0  0
   17.8160   -6.5010    6.0244 C   0  0  0  0  0  0  0  0  0  0  0  0
   17.8442   -7.4629    4.8680 C   0  0  0  0  0  0  0  0  0  0  0  0
   16.9178   -5.5012    6.1318 C   0  0  0  0  0  0  0  0  0  0  0  0
   15.9753   -4.9973    5.0674 C   0  0  0  0  0  0  0  0  0  0  0  0
   14.5467   -5.5522    5.1045 C   0  0  0  0  0  0  0  0  0  0  0  0
   14.2788   -6.7199    4.1637 C   0  0  0  0  0  0  0  0  0  0  0  0
   14.0792   -8.0402    4.8486 C   0  0  0  0  0  0  0  0  0  0  0  0
   14.1637   -6.5065    2.8354 C   0  0  0  0  0  0  0  0  0  0  0  0
   13.7177   -7.4495    1.7460 C   0  0  0  0  0  0  0  0  0  0  0  0
   14.5818   -8.6687    1.3840 C   0  0  0  0  0  0  0  0  0  0  0  0
   16.0235   -8.4045    1.0002 C   0  0  0  0  0  0  0  0  0  0  0  0
   16.2466   -7.4310   -0.1244 C   0  0  0  0  0  0  0  0  0  0  0  0
   17.0162   -9.0897    1.6035 C   0  0  0  0  0  0  0  0  0  0  0  0
   18.4918   -8.9334    1.3711 C   0  0  0  0  0  0  0  0  0  0  0  0
   19.1075   -9.9851    0.4363 C   0  0  0  0  0  0  0  0  0  0  0  0
   19.0471  -11.4569    0.8241 C   0  0  0  0  0  0  0  0  0  0  0  0
   19.3320  -11.8383    2.2498 C   0  0  0  0  0  0  0  0  0  0  0  0
   18.8632  -12.3836   -0.1430 C   0  0  0  0  0  0  0  0  0  0  0  0
   19.0569  -13.8742   -0.0341 C   0  0  0  0  0  0  0  0  0  0  0  0
   17.8507  -14.7426   -0.3073 C   0  0  0  0  0  0  0  0  0  0  0  0
   17.4774  -15.7179    0.6385 C   0  0  0  0  0  0  0  0  0  0  0  0
   16.4501  -16.6386    0.3673 C   0  0  0  0  0  0  0  0  0  0  0  0
   16.0883  -17.7144    1.3204 C   0  0  0  0  0  0  0  0  0  0  0  0
   15.1339  -18.4640    1.2145 O   0  0  0  0  0  0  0  0  0  0  0  0
   16.9692  -17.8390    2.3274 O   0  0  0  0  0  0  0  0  0  0  0  0
   15.7628  -16.5859   -0.8503 C   0  0  0  0  0  0  0  0  0  0  0  0
   16.1295  -15.6294   -1.7862 C   0  0  0  0  0  0  0  0  0  0  0  0
   15.5286  -15.5616   -3.0152 O   0  0  0  0  0  0  0  0  0  0  0  0
   17.1605  -14.7222   -1.5220 C   0  0  0  0  0  0  0  0  0  0  0  0
   17.5069  -13.8392   -2.5084 O   0  0  0  0  0  0  0  0  0  0  0  0
   18.8515   -3.1078    0.2138 H   0  0  0  0  0  0  0  0  0  0  0  0
   18.1804   -4.1233    1.4934 H   0  0  0  0  0  0  0  0  0  0  0  0
   19.0837   -4.8694    0.1664 H   0  0  0  0  0  0  0  0  0  0  0  0
   22.3568   -3.1023    1.2675 H   0  0  0  0  0  0  0  0  0  0  0  0
   21.2605   -2.8343   -0.0696 H   0  0  0  0  0  0  0  0  0  0  0  0
   21.8862   -4.4665    0.2329 H   0  0  0  0  0  0  0  0  0  0  0  0
   19.4452   -4.2771    3.4293 H   0  0  0  0  0  0  0  0  0  0  0  0
   22.4808   -3.6894    3.2687 H   0  0  0  0  0  0  0  0  0  0  0  0
   21.8015   -5.0792    4.0829 H   0  0  0  0  0  0  0  0  0  0  0  0
   21.2591   -2.1402    4.7853 H   0  0  0  0  0  0  0  0  0  0  0  0
   22.4238   -3.1611    5.5889 H   0  0  0  0  0  0  0  0  0  0  0  0
   18.9979   -2.6603    7.3515 H   0  0  0  0  0  0  0  0  0  0  0  0
   18.3605   -3.1192    5.7487 H   0  0  0  0  0  0  0  0  0  0  0  0
   19.4380   -1.7405    5.9248 H   0  0  0  0  0  0  0  0  0  0  0  0
   21.4391   -5.4516    6.4595 H   0  0  0  0  0  0  0  0  0  0  0  0
   18.8880   -4.8086    8.0766 H   0  0  0  0  0  0  0  0  0  0  0  0
   20.2152   -5.8509    8.5096 H   0  0  0  0  0  0  0  0  0  0  0  0
   18.4443   -7.3350    7.8900 H   0  0  0  0  0  0  0  0  0  0  0  0
   19.6650   -7.4054    6.6364 H   0  0  0  0  0  0  0  0  0  0  0  0
   17.6634   -8.4804    5.2332 H   0  0  0  0  0  0  0  0  0  0  0  0
   18.8176   -7.4377    4.3707 H   0  0  0  0  0  0  0  0  0  0  0  0
   17.0846   -7.2524    4.1142 H   0  0  0  0  0  0  0  0  0  0  0  0
   16.9201   -4.8930    7.0350 H   0  0  0  0  0  0  0  0  0  0  0  0
   16.4240   -5.0964    4.0728 H   0  0  0  0  0  0  0  0  0  0  0  0
   15.9048   -3.9120    5.2303 H   0  0  0  0  0  0  0  0  0  0  0  0
   13.8641   -4.7407    4.8120 H   0  0  0  0  0  0  0  0  0  0  0  0
   14.2516   -5.8095    6.1298 H   0  0  0  0  0  0  0  0  0  0  0  0
   13.1833   -8.0078    5.4762 H   0  0  0  0  0  0  0  0  0  0  0  0
   14.9390   -8.2669    5.4873 H   0  0  0  0  0  0  0  0  0  0  0  0
   13.9624   -8.8726    4.1552 H   0  0  0  0  0  0  0  0  0  0  0  0
   14.3173   -5.4868    2.4786 H   0  0  0  0  0  0  0  0  0  0  0  0
   13.5844   -6.8465    0.8366 H   0  0  0  0  0  0  0  0  0  0  0  0
   12.7076   -7.8015    1.9935 H   0  0  0  0  0  0  0  0  0  0  0  0
   14.1041   -9.1672    0.5289 H   0  0  0  0  0  0  0  0  0  0  0  0
   14.5341   -9.4012    2.1962 H   0  0  0  0  0  0  0  0  0  0  0  0
   16.2737   -6.4054    0.2551 H   0  0  0  0  0  0  0  0  0  0  0  0
   15.4420   -7.5071   -0.8639 H   0  0  0  0  0  0  0  0  0  0  0  0
   17.1772   -7.6273   -0.6657 H   0  0  0  0  0  0  0  0  0  0  0  0
   16.7587   -9.8158    2.3737 H   0  0  0  0  0  0  0  0  0  0  0  0
   19.0009   -8.9433    2.3413 H   0  0  0  0  0  0  0  0  0  0  0  0
   18.7077   -7.9390    0.9610 H   0  0  0  0  0  0  0  0  0  0  0  0
   20.1715   -9.7335    0.3279 H   0  0  0  0  0  0  0  0  0  0  0  0
   18.6662   -9.8469   -0.5603 H   0  0  0  0  0  0  0  0  0  0  0  0
   19.1664  -11.0143    2.9468 H   0  0  0  0  0  0  0  0  0  0  0  0
   20.3709  -12.1638    2.3587 H   0  0  0  0  0  0  0  0  0  0  0  0
   18.6685  -12.6474    2.5755 H   0  0  0  0  0  0  0  0  0  0  0  0
   18.6902  -12.0381   -1.1622 H   0  0  0  0  0  0  0  0  0  0  0  0
   19.4742  -14.1303    0.9468 H   0  0  0  0  0  0  0  0  0  0  0  0
   19.8373  -14.1653   -0.7505 H   0  0  0  0  0  0  0  0  0  0  0  0
   18.0147  -15.7786    1.5836 H   0  0  0  0  0  0  0  0  0  0  0  0
   16.6403  -18.6075    2.8395 H   0  0  0  0  0  0  0  0  0  0  0  0
   14.9726  -17.3016   -1.0577 H   0  0  0  0  0  0  0  0  0  0  0  0
   14.9219  -16.3181   -3.1009 H   0  0  0  0  0  0  0  0  0  0  0  0
   16.8604  -14.0012   -3.2245 H   0  0  0  0  0  0  0  0  0  0  0  0
  1  2  1  0  0  0  0
  1 42  1  0  0  0  0
  1 43  1  0  0  0  0
  1 44  1  0  0  0  0
  2  3  1  0  0  0  0
  2  4  2  0  0  0  0
  3 45  1  0  0  0  0
  3 46  1  0  0  0  0
  3 47  1  0  0  0  0
  4  5  1  0  0  0  0
  4 48  1  0  0  0  0
  5  6  1  0  0  0  0
  5 49  1  0  0  0  0
  5 50  1  0  0  0  0
  6  7  1  0  0  0  0
  6 51  1  0  0  0  0
  6 52  1  0  0  0  0
  7  8  1  0  0  0  0
  7  9  2  0  0  0  0
  8 53  1  0  0  0  0
  8 54  1  0  0  0  0
  8 55  1  0  0  0  0
  9 10  1  0  0  0  0
  9 56  1  0  0  0  0
 10 11  1  0  0  0  0
 10 57  1  0  0  0  0
 10 58  1  0  0  0  0
 11 12  1  0  0  0  0
 11 59  1  0  0  0  0
 11 60  1  0  0  0  0
 12 13  1  0  0  0  0
 12 14  2  0  0  0  0
 13 61  1  0  0  0  0
 13 62  1  0  0  0  0
 13 63  1  0  0  0  0
 14 15  1  0  0  0  0
 14 64  1  0  0  0  0
 15 16  1  0  0  0  0
 15 65  1  0  0  0  0
 15 66  1  0  0  0  0
 16 17  1  0  0  0  0
 16 67  1  0  0  0  0
 16 68  1  0  0  0  0
 17 18  1  0  0  0  0
 17 19  2  0  0  0  0
 18 69  1  0  0  0  0
 18 70  1  0  0  0  0
 18 71  1  0  0  0  0
 19 20  1  0  0  0  0
 19 72  1  0  0  0  0
 20 21  1  0  0  0  0
 20 73  1  0  0  0  0
 20 74  1  0  0  0  0
 21 22  1  0  0  0  0
 21 75  1  0  0  0  0
 21 76  1  0  0  0  0
 22 23  1  0  0  0  0
 22 24  2  0  0  0  0
 23 77  1  0  0  0  0
 23 78  1  0  0  0  0
 23 79  1  0  0  0  0
 24 25  1  0  0  0  0
 24 80  1  0  0  0  0
 25 26  1  0  0  0  0
 25 81  1  0  0  0  0
 25 82  1  0  0  0  0
 26 27  1  0  0  0  0
 26 83  1  0  0  0  0
 26 84  1  0  0  0  0
 27 28  1  0  0  0  0
 27 29  2  0  0  0  0
 28 85  1  0  0  0  0
 28 86  1  0  0  0  0
 28 87  1  0  0  0  0
 29 30  1  0  0  0  0
 29 88  1  0  0  0  0
 30 31  1  0  0  0  0
 30 89  1  0  0  0  0
 30 90  1  0  0  0  0
 31 32  1  0  0  0  0
 31 40  2  0  0  0  0
 32 33  2  0  0  0  0
 32 91  1  0  0  0  0
 33 34  1  0  0  0  0
 33 37  1  0  0  0  0
 34 35  2  0  0  0  0
 34 36  1  0  0  0  0
 36 92  1  0  0  0  0
 37 38  2  0  0  0  0
 37 93  1  0  0  0  0
 38 39  1  0  0  0  0
 38 40  1  0  0  0  0
 39 94  1  0  0  0  0
 40 41  1  0  0  0  0
 41 95  1  0  0  0  0
M  END
$$$$
