CHEBI:16274
 OpenBabel04242414063D

 46 49  0  0  0  0  0  0  0  0999 V2000
    1.4517   -0.2917    2.1802 N   0  0  0  0  0  0  0  0  0  0  0  0
    2.6114    0.3691    2.8530 C   0  0  0  0  0  0  0  0  0  0  0  0
    2.9013    1.7820    2.3372 C   0  0  0  0  0  0  0  0  0  0  0  0
    1.7654    2.7431    2.6569 C   0  0  0  0  0  0  0  0  0  0  0  0
    0.6220    2.4480    2.2965 O   0  0  0  0  0  0  0  0  0  0  0  0
    2.0196    4.0406    3.3679 C   0  0  0  0  0  0  0  0  0  0  0  0
    3.1941    4.2376    4.1176 C   0  0  0  0  0  0  0  0  0  0  0  0
    3.4362    5.4461    4.7800 C   0  0  0  0  0  0  0  0  0  0  0  0
    2.5033    6.4728    4.7189 C   0  0  0  0  0  0  0  0  0  0  0  0
    1.3265    6.2803    4.0018 C   0  0  0  0  0  0  0  0  0  0  0  0
    1.0565    5.0703    3.3282 C   0  0  0  0  0  0  0  0  0  0  0  0
   -0.1339    5.0022    2.5788 N   0  0  0  0  0  0  0  0  0  0  0  0
   -1.0684    6.0117    2.6554 C   0  0  0  0  0  0  0  0  0  0  0  0
   -0.7876    7.1433    3.3325 C   0  0  0  0  0  0  0  0  0  0  0  0
   -1.7060    8.3117    3.4562 C   0  0  0  0  0  0  0  0  0  0  0  0
   -2.8987    8.2567    2.5336 C   0  0  0  0  0  0  0  0  0  0  0  0
   -3.6120    9.2442    2.3549 O   0  0  0  0  0  0  0  0  0  0  0  0
   -3.2407    6.9604    1.8896 C   0  0  0  0  0  0  0  0  0  0  0  0
   -4.4428    6.9565    1.2451 N   0  0  0  0  0  0  0  0  0  0  0  0
   -4.8184    5.7891    0.6727 C   0  0  0  0  0  0  0  0  0  0  0  0
   -6.1256    5.8222   -0.0389 C   0  0  0  0  0  0  0  0  0  0  0  0
   -6.6286    4.8645   -0.5995 O   0  0  0  0  0  0  0  0  0  0  0  0
   -6.6713    7.0599    0.0177 O   0  0  0  0  0  0  0  0  0  0  0  0
   -4.0695    4.6292    0.7197 C   0  0  0  0  0  0  0  0  0  0  0  0
   -2.8444    4.6831    1.3811 C   0  0  0  0  0  0  0  0  0  0  0  0
   -2.0874    3.5427    1.4461 O   0  0  0  0  0  0  0  0  0  0  0  0
   -2.3777    5.8672    1.9818 C   0  0  0  0  0  0  0  0  0  0  0  0
    0.4277    7.3306    3.9928 O   0  0  0  0  0  0  0  0  0  0  0  0
    2.3624    0.3718    4.3684 C   0  0  0  0  0  0  0  0  0  0  0  0
    2.9741    1.0544    5.1750 O   0  0  0  0  0  0  0  0  0  0  0  0
    1.3885   -0.5095    4.7095 O   0  0  0  0  0  0  0  0  0  0  0  0
    1.7037   -0.4481    1.1999 H   0  0  0  0  0  0  0  0  0  0  0  0
    0.7031    0.4213    2.1139 H   0  0  0  0  0  0  0  0  0  0  0  0
    3.4859   -0.2701    2.6848 H   0  0  0  0  0  0  0  0  0  0  0  0
    3.0209    1.7704    1.2466 H   0  0  0  0  0  0  0  0  0  0  0  0
    3.8594    2.1219    2.7321 H   0  0  0  0  0  0  0  0  0  0  0  0
    3.9383    3.4568    4.2421 H   0  0  0  0  0  0  0  0  0  0  0  0
    4.3499    5.5764    5.3560 H   0  0  0  0  0  0  0  0  0  0  0  0
    2.6826    7.4114    5.2355 H   0  0  0  0  0  0  0  0  0  0  0  0
   -0.4456    4.0757    2.2671 H   0  0  0  0  0  0  0  0  0  0  0  0
   -1.1526    9.2272    3.2172 H   0  0  0  0  0  0  0  0  0  0  0  0
   -2.0752    8.3829    4.4853 H   0  0  0  0  0  0  0  0  0  0  0  0
   -6.0768    7.6661    0.5245 H   0  0  0  0  0  0  0  0  0  0  0  0
   -4.4360    3.7243    0.2466 H   0  0  0  0  0  0  0  0  0  0  0  0
   -2.5531    2.7947    1.0328 H   0  0  0  0  0  0  0  0  0  0  0  0
    1.0599   -0.8930    3.8564 H   0  0  0  0  0  0  0  0  0  0  0  0
  1  2  1  0  0  0  0
  1 32  1  0  0  0  0
  1 33  1  0  0  0  0
  2  3  1  0  0  0  0
  2 29  1  0  0  0  0
  2 34  1  0  0  0  0
  3  4  1  0  0  0  0
  3 35  1  0  0  0  0
  3 36  1  0  0  0  0
  4  5  2  0  0  0  0
  4  6  1  0  0  0  0
  6  7  1  0  0  0  0
  6 11  2  0  0  0  0
  7  8  2  0  0  0  0
  7 37  1  0  0  0  0
  8  9  1  0  0  0  0
  8 38  1  0  0  0  0
  9 10  2  0  0  0  0
  9 39  1  0  0  0  0
 10 11  1  0  0  0  0
 10 28  1  0  0  0  0
 11 12  1  0  0  0  0
 12 13  1  0  0  0  0
 12 40  1  0  0  0  0
 13 14  2  0  0  0  0
 13 27  1  0  0  0  0
 14 15  1  0  0  0  0
 14 28  1  0  0  0  0
 15 16  1  0  0  0  0
 15 41  1  0  0  0  0
 15 42  1  0  0  0  0
 16 17  2  0  0  0  0
 16 18  1  0  0  0  0
 18 19  1  0  0  0  0
 18 27  2  0  0  0  0
 19 20  2  0  0  0  0
 20 21  1  0  0  0  0
 20 24  1  0  0  0  0
 21 22  2  0  0  0  0
 21 23  1  0  0  0  0
 23 43  1  0  0  0  0
 24 25  2  0  0  0  0
 24 44  1  0  0  0  0
 25 26  1  0  0  0  0
 25 27  1  0  0  0  0
 26 45  1  0  0  0  0
 29 30  2  0  0  0  0
 29 31  1  0  0  0  0
 31 46  1  0  0  0  0
M  END
$$$$
