CHEBI:16899
 OpenBabel04242415313D

 26 25  0  0  1  0  0  0  0  0999 V2000
    9.7550   -1.0264   -0.5728 O   0  0  0  0  0  0  0  0  0  0  0  0
    9.4001   -0.6979    0.7748 C   0  0  0  0  0  0  0  0  0  0  0  0
    8.4739    0.5208    0.7300 C   0  0  1  0  0  0  0  0  0  0  0  0
    7.3374    0.1930   -0.0960 O   0  0  0  0  0  0  0  0  0  0  0  0
    8.0001    0.9506    2.1310 C   0  0  1  0  0  0  0  0  0  0  0  0
    7.3453   -0.1522    2.7741 O   0  0  0  0  0  0  0  0  0  0  0  0
    7.0191    2.1396    2.0664 C   0  0  2  0  0  0  0  0  0  0  0  0
    5.8065    1.7583    1.3723 O   0  0  0  0  0  0  0  0  0  0  0  0
    6.5690    2.6485    3.4499 C   0  0  2  0  0  0  0  0  0  0  0  0
    5.7090    3.7874    3.2277 O   0  0  0  0  0  0  0  0  0  0  0  0
    7.7128    3.1024    4.3550 C   0  0  0  0  0  0  0  0  0  0  0  0
    8.5161    4.0697    3.6785 O   0  0  0  0  0  0  0  0  0  0  0  0
   10.3587   -1.7898   -0.5228 H   0  0  0  0  0  0  0  0  0  0  0  0
   10.3115   -0.4846    1.3409 H   0  0  0  0  0  0  0  0  0  0  0  0
    8.8949   -1.5715    1.1980 H   0  0  0  0  0  0  0  0  0  0  0  0
    8.9844    1.3542    0.2333 H   0  0  0  0  0  0  0  0  0  0  0  0
    7.7305   -0.2797   -0.8623 H   0  0  0  0  0  0  0  0  0  0  0  0
    8.8800    1.2071    2.7290 H   0  0  0  0  0  0  0  0  0  0  0  0
    6.5262   -0.3034    2.2588 H   0  0  0  0  0  0  0  0  0  0  0  0
    7.4559    2.9625    1.4884 H   0  0  0  0  0  0  0  0  0  0  0  0
    6.0942    1.2763    0.5636 H   0  0  0  0  0  0  0  0  0  0  0  0
    5.9596    1.8969    3.9643 H   0  0  0  0  0  0  0  0  0  0  0  0
    5.0803    3.4819    2.5407 H   0  0  0  0  0  0  0  0  0  0  0  0
    8.3525    2.2685    4.6553 H   0  0  0  0  0  0  0  0  0  0  0  0
    7.3231    3.5779    5.2613 H   0  0  0  0  0  0  0  0  0  0  0  0
    7.8920    4.7828    3.4343 H   0  0  0  0  0  0  0  0  0  0  0  0
  1  2  1  0  0  0  0
  1 13  1  0  0  0  0
  2  3  1  0  0  0  0
  2 14  1  0  0  0  0
  2 15  1  0  0  0  0
  3  4  1  0  0  0  0
  3  5  1  0  0  0  0
  3 16  1  6  0  0  0
  4 17  1  0  0  0  0
  5  6  1  0  0  0  0
  5 18  1  6  0  0  0
  6 19  1  0  0  0  0
  7  8  1  0  0  0  0
  7  5  1  0  0  0  0
  7 20  1  1  0  0  0
  8 21  1  0  0  0  0
  9 11  1  0  0  0  0
  9 10  1  0  0  0  0
  9  7  1  0  0  0  0
  9 22  1  1  0  0  0
 10 23  1  0  0  0  0
 11 12  1  0  0  0  0
 11 24  1  0  0  0  0
 11 25  1  0  0  0  0
 12 26  1  0  0  0  0
M  END
$$$$
