CHEBI:18019
 OpenBabel04242423253D

 24 23  0  0  1  0  0  0  0  0999 V2000
   10.5880    2.6121   -4.6164 N   0  0  0  0  0  0  0  0  0  0  0  0
   10.4849    1.1848   -4.8899 C   0  0  0  0  0  0  0  0  0  0  0  0
    9.0323    0.7429   -5.0883 C   0  0  0  0  0  0  0  0  0  0  0  0
    8.1126    0.9295   -3.8755 C   0  0  0  0  0  0  0  0  0  0  0  0
    8.5053    0.1327   -2.6255 C   0  0  0  0  0  0  0  0  0  0  0  0
    8.5131   -1.3939   -2.7853 C   0  0  2  0  0  0  0  0  0  0  0  0
    7.1510   -1.9341   -3.0693 N   0  0  0  0  0  0  0  0  0  0  0  0
    9.0108   -2.0207   -1.4704 C   0  0  0  0  0  0  0  0  0  0  0  0
   10.1669   -2.0100   -1.0811 O   0  0  0  0  0  0  0  0  0  0  0  0
    7.9842   -2.5673   -0.7667 O   0  0  0  0  0  0  0  0  0  0  0  0
   10.1864    2.8241   -3.7040 H   0  0  0  0  0  0  0  0  0  0  0  0
   11.5718    2.8737   -4.5525 H   0  0  0  0  0  0  0  0  0  0  0  0
   10.9610    0.6164   -4.0847 H   0  0  0  0  0  0  0  0  0  0  0  0
   11.0438    0.9683   -5.8071 H   0  0  0  0  0  0  0  0  0  0  0  0
    9.0237   -0.3083   -5.3984 H   0  0  0  0  0  0  0  0  0  0  0  0
    8.6050    1.3045   -5.9296 H   0  0  0  0  0  0  0  0  0  0  0  0
    7.0902    0.6683   -4.1720 H   0  0  0  0  0  0  0  0  0  0  0  0
    8.0727    1.9924   -3.6084 H   0  0  0  0  0  0  0  0  0  0  0  0
    7.8128    0.4050   -1.8170 H   0  0  0  0  0  0  0  0  0  0  0  0
    9.4917    0.4667   -2.2799 H   0  0  0  0  0  0  0  0  0  0  0  0
    9.1893   -1.7175   -3.5828 H   0  0  0  0  0  0  0  0  0  0  0  0
    6.7586   -1.4245   -3.8651 H   0  0  0  0  0  0  0  0  0  0  0  0
    7.2632   -2.8915   -3.4228 H   0  0  0  0  0  0  0  0  0  0  0  0
    7.1732   -2.4164   -1.3144 H   0  0  0  0  0  0  0  0  0  0  0  0
  1  2  1  0  0  0  0
  1 11  1  0  0  0  0
  1 12  1  0  0  0  0
  2  3  1  0  0  0  0
  2 13  1  0  0  0  0
  2 14  1  0  0  0  0
  3  4  1  0  0  0  0
  3 15  1  0  0  0  0
  3 16  1  0  0  0  0
  4  5  1  0  0  0  0
  4 17  1  0  0  0  0
  4 18  1  0  0  0  0
  5 19  1  0  0  0  0
  5 20  1  0  0  0  0
  6  8  1  0  0  0  0
  6  7  1  0  0  0  0
  6  5  1  0  0  0  0
  6 21  1  6  0  0  0
  7 22  1  0  0  0  0
  7 23  1  0  0  0  0
  8  9  2  0  0  0  0
  8 10  1  0  0  0  0
 10 24  1  0  0  0  0
M  END
$$$$
