CHEBI:16147
 OpenBabel04242413543D

 57 61  0  0  1  0  0  0  0  0999 V2000
    3.6229   -1.9767    0.0402 C   0  0  0  0  0  0  0  0  0  0  0  0
    4.3476   -2.3750    1.3249 C   0  0  0  0  0  0  0  0  0  0  0  0
    5.8909   -2.6812    1.1819 C   0  0  2  0  0  0  0  0  0  0  0  0
    6.5465   -1.4211    0.5758 C   0  0  0  0  0  0  0  0  0  0  0  0
    6.6503   -0.3826    1.4251 C   0  0  0  0  0  0  0  0  0  0  0  0
    7.6221   -0.6704    2.5240 C   0  0  0  0  0  0  0  0  0  0  0  0
    7.1319   -1.7668    3.3862 N   0  0  0  0  0  0  0  0  0  0  0  0
    8.3014   -2.3174    4.0964 C   0  0  0  0  0  0  0  0  0  0  0  0
    8.7347   -3.4970    3.2406 C   0  0  0  0  0  0  0  0  0  0  0  0
    7.3845   -4.1604    2.9027 C   0  0  2  0  0  0  0  0  0  0  0  0
    7.1513   -5.1303    4.0515 C   0  0  0  0  0  0  0  0  0  0  0  0
    6.5213   -4.9552    5.2743 C   0  0  0  0  0  0  0  0  0  0  0  0
    6.5298   -6.0188    6.1772 C   0  0  0  0  0  0  0  0  0  0  0  0
    7.1709   -7.2190    5.8421 C   0  0  0  0  0  0  0  0  0  0  0  0
    7.1960   -8.2663    6.7201 O   0  0  0  0  0  0  0  0  0  0  0  0
    7.7957   -7.4011    4.6078 C   0  0  0  0  0  0  0  0  0  0  0  0
    7.7589   -6.3590    3.6963 C   0  0  0  0  0  0  0  0  0  0  0  0
    8.2565   -6.3312    2.3279 N   0  0  0  0  0  0  0  0  0  0  0  0
    8.2449   -7.6555    1.7115 C   0  0  0  0  0  0  0  0  0  0  0  0
    7.3290   -5.2669    1.8173 C   0  0  1  0  0  0  0  0  0  0  0  0
    7.4590   -4.6823    0.4115 C   0  0  1  0  0  0  0  0  0  0  0  0
    8.5889   -3.8161    0.2788 O   0  0  0  0  0  0  0  0  0  0  0  0
    7.5219   -5.7551   -0.6893 C   0  0  0  0  0  0  0  0  0  0  0  0
    6.5624   -6.4117   -1.0810 O   0  0  0  0  0  0  0  0  0  0  0  0
    8.7870   -5.8621   -1.1963 O   0  0  0  0  0  0  0  0  0  0  0  0
    8.9241   -6.7605   -2.2999 C   0  0  0  0  0  0  0  0  0  0  0  0
    6.1278   -3.8807    0.1819 C   0  0  2  0  0  0  0  0  0  0  0  0
    4.9858   -4.7621    0.2545 O   0  0  0  0  0  0  0  0  0  0  0  0
    6.4534   -2.9440    2.6806 C   0  0  2  0  0  0  0  0  0  0  0  0
    2.5567   -1.8375    0.2484 H   0  0  0  0  0  0  0  0  0  0  0  0
    3.7087   -2.7412   -0.7363 H   0  0  0  0  0  0  0  0  0  0  0  0
    4.0025   -1.0329   -0.3619 H   0  0  0  0  0  0  0  0  0  0  0  0
    3.8394   -3.2513    1.7488 H   0  0  0  0  0  0  0  0  0  0  0  0
    4.1855   -1.5779    2.0621 H   0  0  0  0  0  0  0  0  0  0  0  0
    7.4768   -1.6800    0.0620 H   0  0  0  0  0  0  0  0  0  0  0  0
    5.7392    0.0348    1.8574 H   0  0  0  0  0  0  0  0  0  0  0  0
    7.7496    0.2324    3.1333 H   0  0  0  0  0  0  0  0  0  0  0  0
    8.6038   -0.8869    2.0790 H   0  0  0  0  0  0  0  0  0  0  0  0
    8.0008   -2.6328    5.1004 H   0  0  0  0  0  0  0  0  0  0  0  0
    9.1140   -1.5949    4.2398 H   0  0  0  0  0  0  0  0  0  0  0  0
    9.4418   -4.1305    3.7887 H   0  0  0  0  0  0  0  0  0  0  0  0
    9.2601   -3.1283    2.3576 H   0  0  0  0  0  0  0  0  0  0  0  0
    6.0469   -4.0148    5.5374 H   0  0  0  0  0  0  0  0  0  0  0  0
    6.0444   -5.8949    7.1407 H   0  0  0  0  0  0  0  0  0  0  0  0
    6.7250   -8.0030    7.5277 H   0  0  0  0  0  0  0  0  0  0  0  0
    8.2752   -8.3466    4.3902 H   0  0  0  0  0  0  0  0  0  0  0  0
    8.8857   -8.3558    2.2580 H   0  0  0  0  0  0  0  0  0  0  0  0
    8.6699   -7.6091    0.7076 H   0  0  0  0  0  0  0  0  0  0  0  0
    7.2325   -8.0687    1.6423 H   0  0  0  0  0  0  0  0  0  0  0  0
    6.3324   -5.7452    1.8397 H   0  0  0  0  0  0  0  0  0  0  0  0
    9.3745   -4.3920    0.3751 H   0  0  0  0  0  0  0  0  0  0  0  0
    8.3728   -7.6922   -2.1399 H   0  0  0  0  0  0  0  0  0  0  0  0
    9.9845   -7.0054   -2.4053 H   0  0  0  0  0  0  0  0  0  0  0  0
    8.5870   -6.2654   -3.2153 H   0  0  0  0  0  0  0  0  0  0  0  0
    6.1298   -3.4867   -0.8441 H   0  0  0  0  0  0  0  0  0  0  0  0
    5.0699   -5.4319   -0.4579 H   0  0  0  0  0  0  0  0  0  0  0  0
    5.5647   -3.1367    3.2965 H   0  0  0  0  0  0  0  0  0  0  0  0
  1  2  1  0  0  0  0
  1 30  1  0  0  0  0
  1 31  1  0  0  0  0
  1 32  1  0  0  0  0
  2 33  1  0  0  0  0
  2 34  1  0  0  0  0
  3  2  1  1  0  0  0
  3  4  1  0  0  0  0
  3 27  1  0  0  0  0
  3 29  1  0  0  0  0
  4  5  2  0  0  0  0
  4 35  1  0  0  0  0
  5  6  1  0  0  0  0
  5 36  1  0  0  0  0
  6  7  1  0  0  0  0
  6 37  1  0  0  0  0
  6 38  1  0  0  0  0
  7  8  1  0  0  0  0
  7 29  1  0  0  0  0
  8  9  1  0  0  0  0
  8 39  1  0  0  0  0
  8 40  1  0  0  0  0
  9 10  1  0  0  0  0
  9 41  1  0  0  0  0
  9 42  1  0  0  0  0
 10 11  1  1  0  0  0
 10 20  1  0  0  0  0
 10 29  1  0  0  0  0
 11 12  1  0  0  0  0
 11 17  2  0  0  0  0
 12 13  2  0  0  0  0
 12 43  1  0  0  0  0
 13 14  1  0  0  0  0
 13 44  1  0  0  0  0
 14 15  1  0  0  0  0
 14 16  2  0  0  0  0
 15 45  1  0  0  0  0
 16 17  1  0  0  0  0
 16 46  1  0  0  0  0
 17 18  1  0  0  0  0
 18 19  1  0  0  0  0
 18 20  1  0  0  0  0
 19 47  1  0  0  0  0
 19 48  1  0  0  0  0
 19 49  1  0  0  0  0
 20 21  1  0  0  0  0
 20 50  1  6  0  0  0
 21 27  1  0  0  0  0
 21 23  1  6  0  0  0
 21 22  1  0  0  0  0
 22 51  1  0  0  0  0
 23 24  2  0  0  0  0
 23 25  1  0  0  0  0
 25 26  1  0  0  0  0
 26 52  1  0  0  0  0
 26 53  1  0  0  0  0
 26 54  1  0  0  0  0
 27 28  1  0  0  0  0
 27 55  1  1  0  0  0
 28 56  1  0  0  0  0
 29 57  1  1  0  0  0
M  END
$$$$
