CHEBI:17909
 OpenBabel04242423153D

  3  2  0  0  0  0  0  0  0  0999 V2000
    1.0081   -0.0705    0.0320 S   0  0  0  0  0  0  0  0  0  0  0  0
    2.8587   -0.1016   -0.0352 S   0  0  0  0  0  0  0  0  0  0  0  0
    3.4057    0.6404    1.5711 S   0  0  0  0  0  0  0  0  0  0  0  0
  1  2  2  0  0  0  0
  2  3  2  0  0  0  0
M  END
$$$$
