CHEBI:16864
 OpenBabel04242415273D

 59 62  0  0  1  0  0  0  0  0999 V2000
    7.2565   -9.2614    7.8286 N   0  0  0  0  0  0  0  0  0  0  0  0
    7.8969   -8.6681    6.7467 C   0  0  0  0  0  0  0  0  0  0  0  0
    9.2209   -8.8909    6.5878 N   0  0  0  0  0  0  0  0  0  0  0  0
    9.8393   -8.3291    5.5262 C   0  0  0  0  0  0  0  0  0  0  0  0
    9.3129   -7.5361    4.5731 N   0  0  0  0  0  0  0  0  0  0  0  0
    8.0061   -7.3168    4.7956 C   0  0  0  0  0  0  0  0  0  0  0  0
    7.2391   -7.8347    5.8262 C   0  0  0  0  0  0  0  0  0  0  0  0
    5.9326   -7.4036    5.7307 N   0  0  0  0  0  0  0  0  0  0  0  0
    5.9053   -6.6586    4.6446 C   0  0  0  0  0  0  0  0  0  0  0  0
    7.1423   -6.5392    4.0661 N   0  0  0  0  0  0  0  0  0  0  0  0
    7.4922   -5.8134    2.8618 C   0  0  2  0  0  0  0  0  0  0  0  0
    8.5612   -4.8944    3.1684 O   0  0  0  0  0  0  0  0  0  0  0  0
    8.5343   -3.8435    2.1868 C   0  0  2  0  0  0  0  0  0  0  0  0
    8.6754   -2.5022    2.8927 C   0  0  0  0  0  0  0  0  0  0  0  0
    8.7157   -1.4828    1.9122 O   0  0  0  0  0  0  0  0  0  0  0  0
    9.0760    0.0120    2.3741 P   0  0  0  0  0  0  0  0  0  0  0  0
    8.9441    1.0302    1.2939 O   0  0  0  0  0  0  0  0  0  0  0  0
    8.0191    0.2702    3.5529 O   0  0  0  0  0  0  0  0  0  0  0  0
   10.4691   -0.0893    3.1273 O   0  0  0  0  0  0  0  0  0  0  0  0
   11.3265    1.1939    3.5098 P   0  0  0  0  0  0  0  0  0  0  0  0
   12.4499    0.9638    4.4653 O   0  0  0  0  0  0  0  0  0  0  0  0
   11.7915    1.7384    2.0842 O   0  0  0  0  0  0  0  0  0  0  0  0
   10.2045    2.2295    4.0125 O   0  0  0  0  0  0  0  0  0  0  0  0
   10.6574    3.5185    4.3713 C   0  0  0  0  0  0  0  0  0  0  0  0
    9.6875    4.1634    5.2091 O   0  0  0  0  0  0  0  0  0  0  0  0
    9.5215    5.5288    4.7568 C   0  0  2  0  0  0  0  0  0  0  0  0
    8.0586    5.6964    4.3455 C   0  0  0  0  0  0  0  0  0  0  0  0
    7.6860    4.6926    3.4074 O   0  0  0  0  0  0  0  0  0  0  0  0
   10.5135    5.7629    3.6144 C   0  0  1  0  0  0  0  0  0  0  0  0
   11.7544    6.3010    4.1063 O   0  0  0  0  0  0  0  0  0  0  0  0
   10.8044    4.3676    3.1102 C   0  0  1  0  0  0  0  0  0  0  0  0
   12.1248    4.2400    2.5578 O   0  0  0  0  0  0  0  0  0  0  0  0
    7.2226   -3.9703    1.4048 C   0  0  1  0  0  0  0  0  0  0  0  0
    7.4421   -4.6011    0.1312 O   0  0  0  0  0  0  0  0  0  0  0  0
    6.4029   -4.9240    2.2603 C   0  0  1  0  0  0  0  0  0  0  0  0
    5.4469   -5.6347    1.4801 O   0  0  0  0  0  0  0  0  0  0  0  0
    7.9052   -9.4906    8.5694 H   0  0  0  0  0  0  0  0  0  0  0  0
    6.3931   -8.7946    8.0828 H   0  0  0  0  0  0  0  0  0  0  0  0
   10.8999   -8.5439    5.4309 H   0  0  0  0  0  0  0  0  0  0  0  0
    5.0140   -6.1923    4.2425 H   0  0  0  0  0  0  0  0  0  0  0  0
    7.8513   -6.5568    2.1385 H   0  0  0  0  0  0  0  0  0  0  0  0
    9.3892   -3.9893    1.5156 H   0  0  0  0  0  0  0  0  0  0  0  0
    9.5915   -2.4915    3.4930 H   0  0  0  0  0  0  0  0  0  0  0  0
    7.8341   -2.3333    3.5741 H   0  0  0  0  0  0  0  0  0  0  0  0
    7.8807    1.2288    3.6682 H   0  0  0  0  0  0  0  0  0  0  0  0
   12.2844    2.5915    2.1244 H   0  0  0  0  0  0  0  0  0  0  0  0
   11.5948    3.4479    4.9352 H   0  0  0  0  0  0  0  0  0  0  0  0
    9.7374    6.1905    5.6027 H   0  0  0  0  0  0  0  0  0  0  0  0
    7.8810    6.6782    3.8979 H   0  0  0  0  0  0  0  0  0  0  0  0
    7.4027    5.5887    5.2162 H   0  0  0  0  0  0  0  0  0  0  0  0
    7.7238    3.8533    3.9029 H   0  0  0  0  0  0  0  0  0  0  0  0
   10.1524    6.4349    2.8304 H   0  0  0  0  0  0  0  0  0  0  0  0
   11.5871    7.2255    4.3696 H   0  0  0  0  0  0  0  0  0  0  0  0
   10.0825    4.0584    2.3462 H   0  0  0  0  0  0  0  0  0  0  0  0
   12.6252    4.9948    2.9462 H   0  0  0  0  0  0  0  0  0  0  0  0
    6.7005   -3.0274    1.2152 H   0  0  0  0  0  0  0  0  0  0  0  0
    7.9073   -3.9481   -0.4273 H   0  0  0  0  0  0  0  0  0  0  0  0
    5.8800   -4.3543    3.0374 H   0  0  0  0  0  0  0  0  0  0  0  0
    5.8409   -5.7007    0.5827 H   0  0  0  0  0  0  0  0  0  0  0  0
  1  2  1  0  0  0  0
  1 37  1  0  0  0  0
  1 38  1  0  0  0  0
  2  3  1  0  0  0  0
  2  7  2  0  0  0  0
  3  4  2  0  0  0  0
  4  5  1  0  0  0  0
  4 39  1  0  0  0  0
  5  6  2  0  0  0  0
  6  7  1  0  0  0  0
  6 10  1  0  0  0  0
  7  8  1  0  0  0  0
  8  9  2  0  0  0  0
  9 10  1  0  0  0  0
  9 40  1  0  0  0  0
 10 11  1  0  0  0  0
 11 12  1  0  0  0  0
 11 35  1  0  0  0  0
 11 41  1  6  0  0  0
 12 13  1  0  0  0  0
 13 14  1  0  0  0  0
 13 33  1  0  0  0  0
 13 42  1  6  0  0  0
 14 15  1  0  0  0  0
 14 43  1  0  0  0  0
 14 44  1  0  0  0  0
 15 16  1  0  0  0  0
 16 17  2  0  0  0  0
 16 18  1  0  0  0  0
 16 19  1  0  0  0  0
 18 45  1  0  0  0  0
 19 20  1  0  0  0  0
 20 21  2  0  0  0  0
 20 22  1  0  0  0  0
 20 23  1  0  0  0  0
 22 46  1  0  0  0  0
 23 24  1  0  0  0  0
 24 25  1  0  0  0  0
 24 31  1  0  0  0  0
 24 47  1  0  0  0  0
 25 26  1  0  0  0  0
 26 27  1  0  0  0  0
 26 29  1  0  0  0  0
 26 48  1  1  0  0  0
 27 28  1  0  0  0  0
 27 49  1  0  0  0  0
 27 50  1  0  0  0  0
 28 51  1  0  0  0  0
 29 30  1  0  0  0  0
 29 31  1  0  0  0  0
 29 52  1  6  0  0  0
 30 53  1  0  0  0  0
 31 32  1  0  0  0  0
 31 54  1  6  0  0  0
 32 55  1  0  0  0  0
 33 34  1  0  0  0  0
 33 35  1  0  0  0  0
 33 56  1  6  0  0  0
 34 57  1  0  0  0  0
 35 36  1  0  0  0  0
 35 58  1  1  0  0  0
 36 59  1  0  0  0  0
M  END
$$$$
