CHEBI:15615
 OpenBabel04242412533D

 54 53  0  0  1  0  0  0  0  0999 V2000
    4.3477    6.9248    5.2492 C   0  0  0  0  0  0  0  0  0  0  0  0
    5.2372    7.1843    4.0436 C   0  0  0  0  0  0  0  0  0  0  0  0
    4.6903    8.3213    3.1785 C   0  0  0  0  0  0  0  0  0  0  0  0
    5.6122    8.6877    2.0117 C   0  0  0  0  0  0  0  0  0  0  0  0
    5.7567    7.5685    0.9761 C   0  0  0  0  0  0  0  0  0  0  0  0
    6.6065    7.9694   -0.2354 C   0  0  0  0  0  0  0  0  0  0  0  0
    8.0567    8.2796    0.1420 C   0  0  0  0  0  0  0  0  0  0  0  0
    8.9316    8.5144   -1.0902 C   0  0  0  0  0  0  0  0  0  0  0  0
   10.3627    8.9316   -0.7286 C   0  0  0  0  0  0  0  0  0  0  0  0
   11.1660    7.8090   -0.0521 C   0  0  0  0  0  0  0  0  0  0  0  0
   12.5883    8.2483    0.3605 C   0  0  2  0  0  0  0  0  0  0  0  0
   13.3804    8.7015   -0.8455 C   0  0  0  0  0  0  0  0  0  0  0  0
   13.4651    8.1248   -1.9166 O   0  0  0  0  0  0  0  0  0  0  0  0
   14.0442    9.8482   -0.6197 O   0  0  0  0  0  0  0  0  0  0  0  0
   13.3889    7.1566    1.1330 C   0  0  1  0  0  0  0  0  0  0  0  0
   12.5943    6.7480    2.2725 O   0  0  0  0  0  0  0  0  0  0  0  0
   13.7491    5.9270    0.2561 C   0  0  0  0  0  0  0  0  0  0  0  0
   14.2170    4.6570    0.9671 C   0  0  0  0  0  0  0  0  0  0  0  0
   15.4709    4.8722    1.7536 C   0  0  0  0  0  0  0  0  0  0  0  0
   15.4933    5.1793    2.9344 O   0  0  0  0  0  0  0  0  0  0  0  0
   16.5819    4.7872    1.0073 O   0  0  0  0  0  0  0  0  0  0  0  0
   14.6401    7.8588    1.7110 C   0  0  0  0  0  0  0  0  0  0  0  0
   15.7195    7.9541    1.1487 O   0  0  0  0  0  0  0  0  0  0  0  0
   14.3992    8.3730    2.9453 O   0  0  0  0  0  0  0  0  0  0  0  0
    4.7359    6.0829    5.8310 H   0  0  0  0  0  0  0  0  0  0  0  0
    3.3269    6.6811    4.9381 H   0  0  0  0  0  0  0  0  0  0  0  0
    4.3091    7.8011    5.9039 H   0  0  0  0  0  0  0  0  0  0  0  0
    5.3075    6.2612    3.4589 H   0  0  0  0  0  0  0  0  0  0  0  0
    6.2482    7.4299    4.3888 H   0  0  0  0  0  0  0  0  0  0  0  0
    4.5587    9.2140    3.8027 H   0  0  0  0  0  0  0  0  0  0  0  0
    3.6982    8.0542    2.7953 H   0  0  0  0  0  0  0  0  0  0  0  0
    6.5925    8.9644    2.4151 H   0  0  0  0  0  0  0  0  0  0  0  0
    5.2083    9.5800    1.5177 H   0  0  0  0  0  0  0  0  0  0  0  0
    4.7612    7.2755    0.6212 H   0  0  0  0  0  0  0  0  0  0  0  0
    6.2030    6.6804    1.4373 H   0  0  0  0  0  0  0  0  0  0  0  0
    6.1564    8.8352   -0.7354 H   0  0  0  0  0  0  0  0  0  0  0  0
    6.5892    7.1416   -0.9552 H   0  0  0  0  0  0  0  0  0  0  0  0
    8.4531    7.4453    0.7301 H   0  0  0  0  0  0  0  0  0  0  0  0
    8.0938    9.1733    0.7745 H   0  0  0  0  0  0  0  0  0  0  0  0
    8.4842    9.3085   -1.7009 H   0  0  0  0  0  0  0  0  0  0  0  0
    8.9546    7.6111   -1.7117 H   0  0  0  0  0  0  0  0  0  0  0  0
   10.3353    9.8160   -0.0809 H   0  0  0  0  0  0  0  0  0  0  0  0
   10.8656    9.2332   -1.6550 H   0  0  0  0  0  0  0  0  0  0  0  0
   11.2050    6.9551   -0.7368 H   0  0  0  0  0  0  0  0  0  0  0  0
   10.6347    7.4770    0.8455 H   0  0  0  0  0  0  0  0  0  0  0  0
   12.4541    9.1179    1.0211 H   0  0  0  0  0  0  0  0  0  0  0  0
   14.5975    9.9854   -1.4180 H   0  0  0  0  0  0  0  0  0  0  0  0
   13.0942    6.0662    2.7664 H   0  0  0  0  0  0  0  0  0  0  0  0
   14.5149    6.2093   -0.4764 H   0  0  0  0  0  0  0  0  0  0  0  0
   12.8644    5.6278   -0.3163 H   0  0  0  0  0  0  0  0  0  0  0  0
   14.3999    3.8621    0.2341 H   0  0  0  0  0  0  0  0  0  0  0  0
   13.4470    4.2650    1.6405 H   0  0  0  0  0  0  0  0  0  0  0  0
   17.3112    5.1025    1.5825 H   0  0  0  0  0  0  0  0  0  0  0  0
   13.4800    8.1541    3.2211 H   0  0  0  0  0  0  0  0  0  0  0  0
  1  2  1  0  0  0  0
  1 25  1  0  0  0  0
  1 26  1  0  0  0  0
  1 27  1  0  0  0  0
  2  3  1  0  0  0  0
  2 28  1  0  0  0  0
  2 29  1  0  0  0  0
  3  4  1  0  0  0  0
  3 30  1  0  0  0  0
  3 31  1  0  0  0  0
  4  5  1  0  0  0  0
  4 32  1  0  0  0  0
  4 33  1  0  0  0  0
  5  6  1  0  0  0  0
  5 34  1  0  0  0  0
  5 35  1  0  0  0  0
  6  7  1  0  0  0  0
  6 36  1  0  0  0  0
  6 37  1  0  0  0  0
  7  8  1  0  0  0  0
  7 38  1  0  0  0  0
  7 39  1  0  0  0  0
  8  9  1  0  0  0  0
  8 40  1  0  0  0  0
  8 41  1  0  0  0  0
  9 10  1  0  0  0  0
  9 42  1  0  0  0  0
  9 43  1  0  0  0  0
 10 44  1  0  0  0  0
 10 45  1  0  0  0  0
 11 15  1  0  0  0  0
 11 12  1  0  0  0  0
 11 10  1  0  0  0  0
 11 46  1  1  0  0  0
 12 13  2  0  0  0  0
 12 14  1  0  0  0  0
 14 47  1  0  0  0  0
 15 16  1  1  0  0  0
 15 17  1  0  0  0  0
 15 22  1  0  0  0  0
 16 48  1  0  0  0  0
 17 18  1  0  0  0  0
 17 49  1  0  0  0  0
 17 50  1  0  0  0  0
 18 19  1  0  0  0  0
 18 51  1  0  0  0  0
 18 52  1  0  0  0  0
 19 20  2  0  0  0  0
 19 21  1  0  0  0  0
 21 53  1  0  0  0  0
 22 23  2  0  0  0  0
 22 24  1  0  0  0  0
 24 54  1  0  0  0  0
M  END
$$$$
