CHEBI:15927
 OpenBabel04242413293D

 33 34  0  0  1  0  0  0  0  0999 V2000
    1.6908    1.6182   -1.2199 N   0  0  0  0  0  0  0  0  0  0  0  0
    2.5391    1.8337   -0.1761 C   0  0  0  0  0  0  0  0  0  0  0  0
    2.5780    2.9160    0.3968 O   0  0  0  0  0  0  0  0  0  0  0  0
    3.4289    0.7382    0.2707 C   0  0  0  0  0  0  0  0  0  0  0  0
    3.5712   -0.4818   -0.3855 C   0  0  0  0  0  0  0  0  0  0  0  0
    4.4707   -1.4209    0.1141 C   0  0  0  0  0  0  0  0  0  0  0  0
    5.2155   -1.1263    1.2523 C   0  0  0  0  0  0  0  0  0  0  0  0
    5.0629    0.0608    1.8848 N   0  3  0  0  0  0  0  0  0  0  0  0
    5.8945    0.3443    3.0844 C   0  0  2  0  0  0  0  0  0  0  0  0
    5.3294    1.3810    3.8997 O   0  0  0  0  0  0  0  0  0  0  0  0
    6.3886    2.3173    4.2333 C   0  0  2  0  0  0  0  0  0  0  0  0
    6.1140    3.6369    3.5017 C   0  0  0  0  0  0  0  0  0  0  0  0
    6.1502    3.4345    2.0905 O   0  0  0  0  0  0  0  0  0  0  0  0
    7.7035    1.6490    3.8227 C   0  0  1  0  0  0  0  0  0  0  0  0
    8.1631    0.7633    4.8579 O   0  0  0  0  0  0  0  0  0  0  0  0
    7.2977    0.7684    2.6559 C   0  0  1  0  0  0  0  0  0  0  0  0
    8.1639   -0.3558    2.4811 O   0  0  0  0  0  0  0  0  0  0  0  0
    4.1875    0.9814    1.4164 C   0  0  0  0  0  0  0  0  0  0  0  0
    1.0880    2.3899   -1.4878 H   0  0  0  0  0  0  0  0  0  0  0  0
    1.5570    0.7504   -1.7171 H   0  0  0  0  0  0  0  0  0  0  0  0
    3.0130   -0.7191   -1.2866 H   0  0  0  0  0  0  0  0  0  0  0  0
    4.6017   -2.3770   -0.3900 H   0  0  0  0  0  0  0  0  0  0  0  0
    5.9422   -1.8266    1.6581 H   0  0  0  0  0  0  0  0  0  0  0  0
    5.9025   -0.5779    3.6795 H   0  0  0  0  0  0  0  0  0  0  0  0
    6.3442    2.4845    5.3148 H   0  0  0  0  0  0  0  0  0  0  0  0
    6.8617    4.3906    3.7658 H   0  0  0  0  0  0  0  0  0  0  0  0
    5.1159    4.0075    3.7567 H   0  0  0  0  0  0  0  0  0  0  0  0
    5.9144    4.2919    1.6803 H   0  0  0  0  0  0  0  0  0  0  0  0
    8.5173    2.3406    3.5875 H   0  0  0  0  0  0  0  0  0  0  0  0
    8.5098    1.3100    5.5911 H   0  0  0  0  0  0  0  0  0  0  0  0
    7.2817    1.3247    1.7146 H   0  0  0  0  0  0  0  0  0  0  0  0
    8.6739   -0.4389    3.3181 H   0  0  0  0  0  0  0  0  0  0  0  0
    4.1043    1.9161    1.9628 H   0  0  0  0  0  0  0  0  0  0  0  0
  1  2  1  0  0  0  0
  1 19  1  0  0  0  0
  1 20  1  0  0  0  0
  2  3  2  0  0  0  0
  2  4  1  0  0  0  0
  4  5  1  0  0  0  0
  4 18  2  0  0  0  0
  5  6  2  0  0  0  0
  5 21  1  0  0  0  0
  6  7  1  0  0  0  0
  6 22  1  0  0  0  0
  7  8  2  0  0  0  0
  7 23  1  0  0  0  0
  8  9  1  0  0  0  0
  8 18  1  0  0  0  0
  9 10  1  0  0  0  0
  9 16  1  0  0  0  0
  9 24  1  1  0  0  0
 10 11  1  0  0  0  0
 11 12  1  0  0  0  0
 11 14  1  0  0  0  0
 11 25  1  1  0  0  0
 12 13  1  0  0  0  0
 12 26  1  0  0  0  0
 12 27  1  0  0  0  0
 13 28  1  0  0  0  0
 14 15  1  0  0  0  0
 14 16  1  0  0  0  0
 14 29  1  6  0  0  0
 15 30  1  0  0  0  0
 16 17  1  0  0  0  0
 16 31  1  6  0  0  0
 17 32  1  0  0  0  0
 18 33  1  0  0  0  0
M  CHG  1   8   1
M  END
$$$$
