CHEBI:16619
 OpenBabel04242414553D

 42 41  0  0  0  0  0  0  0  0999 V2000
    9.7855    0.0191    4.4036 C   0  0  0  0  0  0  0  0  0  0  0  0
    8.7082    0.1448    3.3552 C   0  0  0  0  0  0  0  0  0  0  0  0
    7.9562    1.4450    3.4001 C   0  0  0  0  0  0  0  0  0  0  0  0
    8.4770   -0.8664    2.4978 C   0  0  0  0  0  0  0  0  0  0  0  0
    7.4086   -0.9923    1.4394 C   0  0  0  0  0  0  0  0  0  0  0  0
    6.3050   -2.0017    1.8185 C   0  0  0  0  0  0  0  0  0  0  0  0
    6.7486   -3.4588    1.7852 C   0  0  0  0  0  0  0  0  0  0  0  0
    6.3470   -4.2226    0.5530 C   0  0  0  0  0  0  0  0  0  0  0  0
    7.4520   -3.9735    2.8144 C   0  0  0  0  0  0  0  0  0  0  0  0
    8.1056   -5.3238    2.9202 C   0  0  0  0  0  0  0  0  0  0  0  0
    7.8227   -6.0448    4.2447 C   0  0  0  0  0  0  0  0  0  0  0  0
    6.4904   -6.7703    4.2753 C   0  0  0  0  0  0  0  0  0  0  0  0
    5.3150   -5.9438    4.7205 C   0  0  0  0  0  0  0  0  0  0  0  0
    6.4397   -8.0823    3.9670 C   0  0  0  0  0  0  0  0  0  0  0  0
    5.2498   -8.9833    3.9432 C   0  0  0  0  0  0  0  0  0  0  0  0
    5.3216   -9.8358    5.0743 O   0  0  0  0  0  0  0  0  0  0  0  0
   10.5630    0.7729    4.2472 H   0  0  0  0  0  0  0  0  0  0  0  0
   10.2640   -0.9663    4.3925 H   0  0  0  0  0  0  0  0  0  0  0  0
    9.3572    0.1604    5.4020 H   0  0  0  0  0  0  0  0  0  0  0  0
    8.6546    2.2816    3.2877 H   0  0  0  0  0  0  0  0  0  0  0  0
    7.4433    1.5528    4.3612 H   0  0  0  0  0  0  0  0  0  0  0  0
    7.2066    1.5426    2.6126 H   0  0  0  0  0  0  0  0  0  0  0  0
    9.1262   -1.7404    2.5610 H   0  0  0  0  0  0  0  0  0  0  0  0
    7.8856   -1.2927    0.4982 H   0  0  0  0  0  0  0  0  0  0  0  0
    6.9376   -0.0252    1.2406 H   0  0  0  0  0  0  0  0  0  0  0  0
    5.4663   -1.8689    1.1224 H   0  0  0  0  0  0  0  0  0  0  0  0
    5.9002   -1.7601    2.8102 H   0  0  0  0  0  0  0  0  0  0  0  0
    6.4959   -5.3008    0.6463 H   0  0  0  0  0  0  0  0  0  0  0  0
    6.9123   -3.8719   -0.3154 H   0  0  0  0  0  0  0  0  0  0  0  0
    5.2792   -4.0788    0.3522 H   0  0  0  0  0  0  0  0  0  0  0  0
    7.6552   -3.3222    3.6652 H   0  0  0  0  0  0  0  0  0  0  0  0
    9.1880   -5.1451    2.8666 H   0  0  0  0  0  0  0  0  0  0  0  0
    7.8686   -5.9773    2.0762 H   0  0  0  0  0  0  0  0  0  0  0  0
    7.8912   -5.3514    5.0927 H   0  0  0  0  0  0  0  0  0  0  0  0
    8.6299   -6.7726    4.4066 H   0  0  0  0  0  0  0  0  0  0  0  0
    5.5207   -5.4989    5.7002 H   0  0  0  0  0  0  0  0  0  0  0  0
    4.3951   -6.5232    4.8242 H   0  0  0  0  0  0  0  0  0  0  0  0
    5.1152   -5.1375    4.0097 H   0  0  0  0  0  0  0  0  0  0  0  0
    7.3645   -8.5853    3.6841 H   0  0  0  0  0  0  0  0  0  0  0  0
    5.2704   -9.6028    3.0413 H   0  0  0  0  0  0  0  0  0  0  0  0
    4.2943   -8.4555    3.9562 H   0  0  0  0  0  0  0  0  0  0  0  0
    5.4711   -9.2593    5.8436 H   0  0  0  0  0  0  0  0  0  0  0  0
  1  2  1  0  0  0  0
  1 17  1  0  0  0  0
  1 18  1  0  0  0  0
  1 19  1  0  0  0  0
  2  3  1  0  0  0  0
  2  4  2  0  0  0  0
  3 20  1  0  0  0  0
  3 21  1  0  0  0  0
  3 22  1  0  0  0  0
  4  5  1  0  0  0  0
  4 23  1  0  0  0  0
  5  6  1  0  0  0  0
  5 24  1  0  0  0  0
  5 25  1  0  0  0  0
  6  7  1  0  0  0  0
  6 26  1  0  0  0  0
  6 27  1  0  0  0  0
  7  8  1  0  0  0  0
  7  9  2  0  0  0  0
  8 28  1  0  0  0  0
  8 29  1  0  0  0  0
  8 30  1  0  0  0  0
  9 10  1  0  0  0  0
  9 31  1  0  0  0  0
 10 11  1  0  0  0  0
 10 32  1  0  0  0  0
 10 33  1  0  0  0  0
 11 12  1  0  0  0  0
 11 34  1  0  0  0  0
 11 35  1  0  0  0  0
 12 13  1  0  0  0  0
 12 14  2  0  0  0  0
 13 36  1  0  0  0  0
 13 37  1  0  0  0  0
 13 38  1  0  0  0  0
 14 15  1  0  0  0  0
 14 39  1  0  0  0  0
 15 16  1  0  0  0  0
 15 40  1  0  0  0  0
 15 41  1  0  0  0  0
 16 42  1  0  0  0  0
M  END
$$$$
