CHEBI:15863
 OpenBabel04242413233D

 40 41  0  0  1  0  0  0  0  0999 V2000
    1.6515   -2.7208    4.6858 O   0  0  0  0  0  0  0  0  0  0  0  0
    2.6697   -2.5238    4.0531 C   0  0  0  0  0  0  0  0  0  0  0  0
    3.8646   -2.3705    4.6611 O   0  0  0  0  0  0  0  0  0  0  0  0
    2.8154   -2.4356    2.5737 C   0  0  0  0  0  0  0  0  0  0  0  0
    1.7915   -2.8234    1.7988 C   0  0  0  0  0  0  0  0  0  0  0  0
    1.8858   -2.8528    0.3131 C   0  0  2  0  0  0  0  0  0  0  0  0
    1.3083   -4.0751   -0.1405 O   0  0  0  0  0  0  0  0  0  0  0  0
    3.3377   -2.7592   -0.1846 C   0  0  1  0  0  0  0  0  0  0  0  0
    3.3214   -2.4008   -1.5753 O   0  0  0  0  0  0  0  0  0  0  0  0
    4.0756   -1.7227    0.6807 C   0  0  2  0  0  0  0  0  0  0  0  0
    5.4345   -1.4896    0.2909 O   0  0  0  0  0  0  0  0  0  0  0  0
    6.3468   -2.5960    0.1650 C   0  0  2  0  0  0  0  0  0  0  0  0
    6.8542   -3.1496    1.5051 C   0  0  2  0  0  0  0  0  0  0  0  0
    5.8515   -3.8292    2.2615 O   0  0  0  0  0  0  0  0  0  0  0  0
    7.4906   -2.0305    2.3355 C   0  0  1  0  0  0  0  0  0  0  0  0
    8.0572   -2.5933    3.5304 O   0  0  0  0  0  0  0  0  0  0  0  0
    8.5970   -1.3400    1.5106 C   0  0  0  0  0  0  0  0  0  0  0  0
    9.7192   -2.2081    1.3977 O   0  0  0  0  0  0  0  0  0  0  0  0
    8.1706   -0.9450    0.2067 O   0  0  0  0  0  0  0  0  0  0  0  0
    7.5929   -2.0341   -0.5440 C   0  0  2  0  0  0  0  0  0  0  0  0
    7.1914   -1.5146   -1.9179 C   0  0  0  0  0  0  0  0  0  0  0  0
    6.4297   -2.0938   -2.6806 O   0  0  0  0  0  0  0  0  0  0  0  0
    7.7704   -0.3235   -2.2084 O   0  0  0  0  0  0  0  0  0  0  0  0
    4.0285   -2.0005    2.0788 O   0  0  0  0  0  0  0  0  0  0  0  0
    3.6477   -2.4484    5.6141 H   0  0  0  0  0  0  0  0  0  0  0  0
    0.8567   -3.1595    2.2425 H   0  0  0  0  0  0  0  0  0  0  0  0
    1.2771   -2.0415   -0.1029 H   0  0  0  0  0  0  0  0  0  0  0  0
    1.4390   -4.0847   -1.1081 H   0  0  0  0  0  0  0  0  0  0  0  0
    3.8069   -3.7467   -0.1144 H   0  0  0  0  0  0  0  0  0  0  0  0
    4.2412   -2.2278   -1.8652 H   0  0  0  0  0  0  0  0  0  0  0  0
    3.5912   -0.7483    0.5327 H   0  0  0  0  0  0  0  0  0  0  0  0
    5.8947   -3.3897   -0.4365 H   0  0  0  0  0  0  0  0  0  0  0  0
    7.6067   -3.9232    1.3060 H   0  0  0  0  0  0  0  0  0  0  0  0
    5.2561   -3.1540    2.6443 H   0  0  0  0  0  0  0  0  0  0  0  0
    6.7284   -1.3040    2.6385 H   0  0  0  0  0  0  0  0  0  0  0  0
    7.3938   -3.2293    3.8686 H   0  0  0  0  0  0  0  0  0  0  0  0
    8.9409   -0.4454    2.0401 H   0  0  0  0  0  0  0  0  0  0  0  0
    9.8134   -2.6008    2.2904 H   0  0  0  0  0  0  0  0  0  0  0  0
    8.3573   -2.8036   -0.7080 H   0  0  0  0  0  0  0  0  0  0  0  0
    8.2750   -0.0265   -1.4144 H   0  0  0  0  0  0  0  0  0  0  0  0
  1  2  2  0  0  0  0
  2  3  1  0  0  0  0
  2  4  1  0  0  0  0
  3 25  1  0  0  0  0
  4  5  2  0  0  0  0
  4 24  1  0  0  0  0
  5  6  1  0  0  0  0
  5 26  1  0  0  0  0
  6  7  1  0  0  0  0
  6  8  1  0  0  0  0
  6 27  1  6  0  0  0
  7 28  1  0  0  0  0
  8  9  1  0  0  0  0
  8 10  1  0  0  0  0
  8 29  1  1  0  0  0
  9 30  1  0  0  0  0
 10 11  1  0  0  0  0
 10 24  1  0  0  0  0
 10 31  1  6  0  0  0
 11 12  1  0  0  0  0
 12 13  1  0  0  0  0
 12 20  1  0  0  0  0
 12 32  1  6  0  0  0
 13 15  1  0  0  0  0
 13 14  1  0  0  0  0
 13 33  1  6  0  0  0
 14 34  1  0  0  0  0
 15 16  1  0  0  0  0
 15 17  1  0  0  0  0
 15 35  1  1  0  0  0
 16 36  1  0  0  0  0
 17 18  1  0  0  0  0
 17 19  1  0  0  0  0
 17 37  1  0  0  0  0
 18 38  1  0  0  0  0
 19 20  1  0  0  0  0
 20 21  1  0  0  0  0
 20 39  1  6  0  0  0
 21 22  2  0  0  0  0
 21 23  1  0  0  0  0
 23 40  1  0  0  0  0
M  END
$$$$
