CHEBI:16536
 OpenBabel04242414423D

 17 17  0  0  0  0  0  0  0  0999 V2000
   -1.3228   -2.6691   -0.0008 C   0  0  0  0  0  0  0  0  0  0  0  0
   -0.6752   -1.3163    0.0059 C   0  0  0  0  0  0  0  0  0  0  0  0
   -1.4447   -0.1452    0.0128 C   0  0  0  0  0  0  0  0  0  0  0  0
   -0.8135    1.0983    0.0132 C   0  0  0  0  0  0  0  0  0  0  0  0
   -1.5333    2.2578    0.0216 O   0  0  0  0  0  0  0  0  0  0  0  0
    0.5729    1.2011    0.0047 C   0  0  0  0  0  0  0  0  0  0  0  0
    1.3325    0.0373   -0.0050 C   0  0  0  0  0  0  0  0  0  0  0  0
    2.6961    0.0793   -0.0151 O   0  0  0  0  0  0  0  0  0  0  0  0
    0.7227   -1.2141   -0.0052 C   0  0  0  0  0  0  0  0  0  0  0  0
   -2.4131   -2.5928    0.0645 H   0  0  0  0  0  0  0  0  0  0  0  0
   -0.9778   -3.2575    0.8556 H   0  0  0  0  0  0  0  0  0  0  0  0
   -1.0762   -3.1999   -0.9258 H   0  0  0  0  0  0  0  0  0  0  0  0
   -2.5285   -0.2132    0.0180 H   0  0  0  0  0  0  0  0  0  0  0  0
   -2.4786    2.0344    0.0280 H   0  0  0  0  0  0  0  0  0  0  0  0
    1.0345    2.1822    0.0051 H   0  0  0  0  0  0  0  0  0  0  0  0
    2.9727    1.0107   -0.0139 H   0  0  0  0  0  0  0  0  0  0  0  0
    1.3417   -2.1080   -0.0141 H   0  0  0  0  0  0  0  0  0  0  0  0
  1  2  1  0  0  0  0
  1 10  1  0  0  0  0
  1 11  1  0  0  0  0
  1 12  1  0  0  0  0
  2  3  1  0  0  0  0
  2  9  2  0  0  0  0
  3  4  2  0  0  0  0
  3 13  1  0  0  0  0
  4  5  1  0  0  0  0
  4  6  1  0  0  0  0
  5 14  1  0  0  0  0
  6  7  2  0  0  0  0
  6 15  1  0  0  0  0
  7  8  1  0  0  0  0
  7  9  1  0  0  0  0
  8 16  1  0  0  0  0
  9 17  1  0  0  0  0
M  END
$$$$
