CHEBI:2376
 OpenBabel04242410373D

 87 90  0  0  1  0  0  0  0  0999 V2000
   -0.7851    5.7379   10.2144 C   0  0  0  0  0  0  0  0  0  0  0  0
   -0.1466    4.3427   10.1704 C   0  0  1  0  0  0  0  0  0  0  0  0
    0.8536    4.3103    9.1539 O   0  0  0  0  0  0  0  0  0  0  0  0
    2.2178    4.6106    9.4675 C   0  0  2  0  0  0  0  0  0  0  0  0
    2.9192    3.3881    9.2186 O   0  0  0  0  0  0  0  0  0  0  0  0
    4.3158    3.3945    8.9015 C   0  0  1  0  0  0  0  0  0  0  0  0
    4.7696    1.9122    8.9009 C   0  0  2  0  0  0  0  0  0  0  0  0
    6.0530    1.7958    9.5532 O   0  0  0  0  0  0  0  0  0  0  0  0
    4.9018    1.2818    7.5038 C   0  0  1  0  0  0  0  0  0  0  0  0
    4.8288   -0.1474    7.5620 O   0  0  0  0  0  0  0  0  0  0  0  0
    3.9799    1.9153    6.4324 C   0  0  1  0  0  0  0  0  0  0  0  0
    2.7259    1.2570    6.1703 O   0  0  0  0  0  0  0  0  0  0  0  0
    1.6349    1.3935    7.1002 C   0  0  1  0  0  0  0  0  0  0  0  0
    0.3120    1.2900    6.2887 C   0  0  2  0  0  0  0  0  0  0  0  0
    0.0109    2.5441    5.6479 O   0  0  0  0  0  0  0  0  0  0  0  0
   -0.8783    0.9244    7.1843 C   0  0  1  0  0  0  0  0  0  0  0  0
   -2.0848    0.8468    6.4025 O   0  0  0  0  0  0  0  0  0  0  0  0
   -0.6122   -0.3951    7.9310 C   0  0  0  0  0  0  0  0  0  0  0  0
   -1.3736   -1.4400    7.3359 O   0  0  0  0  0  0  0  0  0  0  0  0
    0.7415   -0.7903    7.8701 O   0  0  0  0  0  0  0  0  0  0  0  0
    1.6733    0.2699    8.1728 C   0  0  2  0  0  0  0  0  0  0  0  0
    1.4357    0.7968    9.5905 C   0  0  0  0  0  0  0  0  0  0  0  0
    1.5886   -0.2310   10.5650 O   0  0  0  0  0  0  0  0  0  0  0  0
    3.8806    3.3448    6.4885 O   0  0  0  0  0  0  0  0  0  0  0  0
    4.6033    4.0230    7.5304 C   0  0  2  0  0  0  0  0  0  0  0  0
    6.1122    4.1940    7.2329 C   0  0  0  0  0  0  0  0  0  0  0  0
    6.8285    4.6892    8.3606 O   0  0  0  0  0  0  0  0  0  0  0  0
    2.3982    5.0898   10.9147 C   0  0  2  0  0  0  0  0  0  0  0  0
    3.7724    5.3101   11.2570 O   0  0  0  0  0  0  0  0  0  0  0  0
    1.7889    4.0388   11.8446 C   0  0  1  0  0  0  0  0  0  0  0  0
    2.0409    4.4506   13.2019 O   0  0  0  0  0  0  0  0  0  0  0  0
    0.2632    3.8521   11.6005 C   0  0  2  0  0  0  0  0  0  0  0  0
   -0.1161    2.4610   12.0592 N   0  0  0  0  0  0  0  0  0  0  0  0
   -1.4089    1.9201   11.5689 C   0  0  1  0  0  0  0  0  0  0  0  0
   -1.4264    0.4189   11.7723 C   0  0  0  0  0  0  0  0  0  0  0  0
   -2.5110   -0.3316   12.0617 C   0  0  0  0  0  0  0  0  0  0  0  0
   -2.4557   -1.8339   11.9574 C   0  0  0  0  0  0  0  0  0  0  0  0
   -3.4968   -2.2941   11.1121 O   0  0  0  0  0  0  0  0  0  0  0  0
   -3.8184    0.3182   12.4047 C   0  0  1  0  0  0  0  0  0  0  0  0
   -4.4768   -0.3740   13.4704 O   0  0  0  0  0  0  0  0  0  0  0  0
   -3.6423    1.7667   12.8878 C   0  0  2  0  0  0  0  0  0  0  0  0
   -4.9249    2.4231   12.9556 O   0  0  0  0  0  0  0  0  0  0  0  0
   -2.7271    2.6233   12.0078 C   0  0  1  0  0  0  0  0  0  0  0  0
   -2.4713    3.8422   12.7303 O   0  0  0  0  0  0  0  0  0  0  0  0
   -1.6883    5.7305   10.8340 H   0  0  0  0  0  0  0  0  0  0  0  0
   -1.0661    6.0624    9.2069 H   0  0  0  0  0  0  0  0  0  0  0  0
   -0.1102    6.4970   10.6145 H   0  0  0  0  0  0  0  0  0  0  0  0
   -0.9454    3.7189    9.7705 H   0  0  0  0  0  0  0  0  0  0  0  0
    2.5491    5.3797    8.7655 H   0  0  0  0  0  0  0  0  0  0  0  0
    4.8446    3.9267    9.6940 H   0  0  0  0  0  0  0  0  0  0  0  0
    4.1064    1.2905    9.5032 H   0  0  0  0  0  0  0  0  0  0  0  0
    5.8745    1.7813   10.5133 H   0  0  0  0  0  0  0  0  0  0  0  0
    5.9298    1.4504    7.1706 H   0  0  0  0  0  0  0  0  0  0  0  0
    5.4802   -0.4387    8.2248 H   0  0  0  0  0  0  0  0  0  0  0  0
    4.5109    1.7332    5.4896 H   0  0  0  0  0  0  0  0  0  0  0  0
    1.6867    2.3911    7.5314 H   0  0  0  0  0  0  0  0  0  0  0  0
    0.4139    0.5600    5.4763 H   0  0  0  0  0  0  0  0  0  0  0  0
   -0.9014    2.4454    5.3095 H   0  0  0  0  0  0  0  0  0  0  0  0
   -1.0405    1.7364    7.9029 H   0  0  0  0  0  0  0  0  0  0  0  0
   -2.2460   -0.1173    6.2931 H   0  0  0  0  0  0  0  0  0  0  0  0
   -0.9470   -0.3240    8.9698 H   0  0  0  0  0  0  0  0  0  0  0  0
   -0.9789   -2.2427    7.7251 H   0  0  0  0  0  0  0  0  0  0  0  0
    2.6370   -0.2305    8.1698 H   0  0  0  0  0  0  0  0  0  0  0  0
    0.4458    1.2308    9.6818 H   0  0  0  0  0  0  0  0  0  0  0  0
    2.1390    1.5578    9.8741 H   0  0  0  0  0  0  0  0  0  0  0  0
    1.6029    0.2288   11.4256 H   0  0  0  0  0  0  0  0  0  0  0  0
    4.1996    5.0401    7.5370 H   0  0  0  0  0  0  0  0  0  0  0  0
    6.2399    4.9106    6.4153 H   0  0  0  0  0  0  0  0  0  0  0  0
    6.6079    3.2857    6.8903 H   0  0  0  0  0  0  0  0  0  0  0  0
    7.0354    3.9296    8.9392 H   0  0  0  0  0  0  0  0  0  0  0  0
    1.9039    6.0538   11.0638 H   0  0  0  0  0  0  0  0  0  0  0  0
    3.7677    5.4494   12.2254 H   0  0  0  0  0  0  0  0  0  0  0  0
    2.3325    3.0945   11.7182 H   0  0  0  0  0  0  0  0  0  0  0  0
    1.6774    3.7522   13.7740 H   0  0  0  0  0  0  0  0  0  0  0  0
   -0.2414    4.5133   12.3146 H   0  0  0  0  0  0  0  0  0  0  0  0
   -0.2117    2.5205   13.0764 H   0  0  0  0  0  0  0  0  0  0  0  0
   -1.3938    1.9780   10.4769 H   0  0  0  0  0  0  0  0  0  0  0  0
   -0.5164   -0.1111   11.5251 H   0  0  0  0  0  0  0  0  0  0  0  0
   -1.5078   -2.1876   11.5357 H   0  0  0  0  0  0  0  0  0  0  0  0
   -2.5707   -2.2980   12.9413 H   0  0  0  0  0  0  0  0  0  0  0  0
   -3.3423   -1.9339   10.2231 H   0  0  0  0  0  0  0  0  0  0  0  0
   -4.4929    0.2807   11.5416 H   0  0  0  0  0  0  0  0  0  0  0  0
   -3.7998   -0.6834   14.0961 H   0  0  0  0  0  0  0  0  0  0  0  0
   -3.2684    1.7708   13.9201 H   0  0  0  0  0  0  0  0  0  0  0  0
   -5.5520    1.7440   13.2790 H   0  0  0  0  0  0  0  0  0  0  0  0
   -3.2664    2.9327   11.1033 H   0  0  0  0  0  0  0  0  0  0  0  0
   -3.3555    4.1582   13.0094 H   0  0  0  0  0  0  0  0  0  0  0  0
  1 45  1  0  0  0  0
  1 46  1  0  0  0  0
  1 47  1  0  0  0  0
  2  3  1  0  0  0  0
  2 32  1  0  0  0  0
  2  1  1  0  0  0  0
  2 48  1  6  0  0  0
  3  4  1  0  0  0  0
  4 28  1  0  0  0  0
  4  5  1  0  0  0  0
  4 49  1  6  0  0  0
  6  7  1  0  0  0  0
  6 25  1  0  0  0  0
  6  5  1  0  0  0  0
  6 50  1  1  0  0  0
  7  9  1  0  0  0  0
  7  8  1  0  0  0  0
  7 51  1  1  0  0  0
  8 52  1  0  0  0  0
  9 10  1  0  0  0  0
  9 11  1  0  0  0  0
  9 53  1  6  0  0  0
 10 54  1  0  0  0  0
 11 12  1  0  0  0  0
 11 24  1  0  0  0  0
 11 55  1  6  0  0  0
 13 14  1  0  0  0  0
 13 21  1  0  0  0  0
 13 12  1  0  0  0  0
 13 56  1  1  0  0  0
 14 16  1  0  0  0  0
 14 15  1  0  0  0  0
 14 57  1  6  0  0  0
 15 58  1  0  0  0  0
 16 17  1  0  0  0  0
 16 18  1  0  0  0  0
 16 59  1  1  0  0  0
 17 60  1  0  0  0  0
 18 19  1  0  0  0  0
 18 20  1  0  0  0  0
 18 61  1  0  0  0  0
 19 62  1  0  0  0  0
 20 21  1  0  0  0  0
 21 22  1  0  0  0  0
 21 63  1  6  0  0  0
 22 23  1  0  0  0  0
 22 64  1  0  0  0  0
 22 65  1  0  0  0  0
 23 66  1  0  0  0  0
 24 25  1  0  0  0  0
 25 26  1  0  0  0  0
 25 67  1  1  0  0  0
 26 27  1  0  0  0  0
 26 68  1  0  0  0  0
 26 69  1  0  0  0  0
 27 70  1  0  0  0  0
 28 30  1  0  0  0  0
 28 29  1  0  0  0  0
 28 71  1  1  0  0  0
 29 72  1  0  0  0  0
 30 31  1  0  0  0  0
 30 32  1  0  0  0  0
 30 73  1  6  0  0  0
 31 74  1  0  0  0  0
 32 33  1  0  0  0  0
 32 75  1  1  0  0  0
 33 34  1  0  0  0  0
 33 76  1  0  0  0  0
 34 35  1  0  0  0  0
 34 43  1  0  0  0  0
 34 77  1  6  0  0  0
 35 36  2  0  0  0  0
 35 78  1  0  0  0  0
 36 37  1  0  0  0  0
 36 39  1  0  0  0  0
 37 38  1  0  0  0  0
 37 79  1  0  0  0  0
 37 80  1  0  0  0  0
 38 81  1  0  0  0  0
 39 40  1  0  0  0  0
 39 41  1  0  0  0  0
 39 82  1  6  0  0  0
 40 83  1  0  0  0  0
 41 42  1  0  0  0  0
 41 43  1  0  0  0  0
 41 84  1  1  0  0  0
 42 85  1  0  0  0  0
 43 44  1  0  0  0  0
 43 86  1  6  0  0  0
 44 87  1  0  0  0  0
M  END
$$$$
