CHEBI:16515
 OpenBabel04242414403D

 52 54  0  0  1  0  0  0  0  0999 V2000
    1.2882   -6.2914   -7.2831 N   0  0  0  0  0  0  0  0  0  0  0  0
    1.4238   -5.9346   -5.9467 C   0  0  0  0  0  0  0  0  0  0  0  0
    1.6498   -6.9159   -5.0445 N   0  0  0  0  0  0  0  0  0  0  0  0
    1.7617   -6.5749   -3.7437 C   0  0  0  0  0  0  0  0  0  0  0  0
    1.6480   -5.3529   -3.1855 N   0  0  0  0  0  0  0  0  0  0  0  0
    1.4175   -4.4156   -4.1189 C   0  0  0  0  0  0  0  0  0  0  0  0
    1.2958   -4.6134   -5.4856 C   0  0  0  0  0  0  0  0  0  0  0  0
    1.0264   -3.4251   -6.1327 N   0  0  0  0  0  0  0  0  0  0  0  0
    0.9937   -2.5229   -5.1748 C   0  0  0  0  0  0  0  0  0  0  0  0
    1.2078   -3.0759   -3.9373 N   0  0  0  0  0  0  0  0  0  0  0  0
    1.0903   -2.3614   -2.6828 C   0  0  2  0  0  0  0  0  0  0  0  0
    2.3619   -2.3794   -1.9934 O   0  0  0  0  0  0  0  0  0  0  0  0
    2.0816   -2.6768   -0.6109 C   0  0  2  0  0  0  0  0  0  0  0  0
    3.3063   -3.3117    0.0444 C   0  0  0  0  0  0  0  0  0  0  0  0
    3.0914   -3.6570    1.4028 O   0  0  0  0  0  0  0  0  0  0  0  0
    2.9843   -2.4787    2.4903 P   0  0  0  0  0  0  0  0  0  0  0  0
    3.7472   -1.2335    2.2006 O   0  0  0  0  0  0  0  0  0  0  0  0
    1.4002   -2.2198    2.4823 O   0  0  0  0  0  0  0  0  0  0  0  0
    3.1994   -3.1959    3.8830 O   0  0  0  0  0  0  0  0  0  0  0  0
    4.3206   -2.7338    4.9056 P   0  0  0  0  0  0  0  0  0  0  0  0
    4.0574   -1.4550    5.6263 O   0  0  0  0  0  0  0  0  0  0  0  0
    4.4421   -4.0035    5.8747 O   0  0  0  0  0  0  0  0  0  0  0  0
    5.6748   -2.8263    4.0524 O   0  0  0  0  0  0  0  0  0  0  0  0
    6.8466   -2.2077    4.5694 C   0  0  0  0  0  0  0  0  0  0  0  0
    7.6227   -3.1500    5.4866 C   0  0  0  0  0  0  0  0  0  0  0  0
    6.8176   -3.5083    6.6237 O   0  0  0  0  0  0  0  0  0  0  0  0
    8.0956   -4.3821    4.7181 C   0  0  0  0  0  0  0  0  0  0  0  0
    8.4799   -4.4391    3.5610 O   0  0  0  0  0  0  0  0  0  0  0  0
    8.1178   -5.4823    5.5073 O   0  0  0  0  0  0  0  0  0  0  0  0
    0.8463   -3.5771   -0.6311 C   0  0  1  0  0  0  0  0  0  0  0  0
    0.0736   -3.5987    0.5653 O   0  0  0  0  0  0  0  0  0  0  0  0
    0.0270   -2.9242   -1.7345 C   0  0  1  0  0  0  0  0  0  0  0  0
   -0.7428   -1.8458   -1.1628 O   0  0  0  0  0  0  0  0  0  0  0  0
    1.0193   -7.2609   -7.3866 H   0  0  0  0  0  0  0  0  0  0  0  0
    0.7798   -5.6029   -7.8273 H   0  0  0  0  0  0  0  0  0  0  0  0
    1.9611   -7.3937   -3.0578 H   0  0  0  0  0  0  0  0  0  0  0  0
    0.8027   -1.4660   -5.3176 H   0  0  0  0  0  0  0  0  0  0  0  0
    0.8777   -1.3126   -2.9234 H   0  0  0  0  0  0  0  0  0  0  0  0
    1.8511   -1.7335   -0.1009 H   0  0  0  0  0  0  0  0  0  0  0  0
    4.1736   -2.6462   -0.0362 H   0  0  0  0  0  0  0  0  0  0  0  0
    3.5860   -4.2253   -0.4928 H   0  0  0  0  0  0  0  0  0  0  0  0
    1.1828   -1.3691    2.9124 H   0  0  0  0  0  0  0  0  0  0  0  0
    5.1734   -3.8437    6.5132 H   0  0  0  0  0  0  0  0  0  0  0  0
    6.5684   -1.2970    5.1108 H   0  0  0  0  0  0  0  0  0  0  0  0
    7.4615   -1.9055    3.7153 H   0  0  0  0  0  0  0  0  0  0  0  0
    8.5150   -2.6423    5.8684 H   0  0  0  0  0  0  0  0  0  0  0  0
    7.3249   -4.2295    7.0576 H   0  0  0  0  0  0  0  0  0  0  0  0
    8.4126   -6.1996    4.9037 H   0  0  0  0  0  0  0  0  0  0  0  0
    1.1149   -4.6038   -0.8908 H   0  0  0  0  0  0  0  0  0  0  0  0
    0.6893   -3.6321    1.3262 H   0  0  0  0  0  0  0  0  0  0  0  0
   -0.6910   -3.6056   -2.1997 H   0  0  0  0  0  0  0  0  0  0  0  0
   -1.0220   -2.1885   -0.2852 H   0  0  0  0  0  0  0  0  0  0  0  0
  1  2  1  0  0  0  0
  1 34  1  0  0  0  0
  1 35  1  0  0  0  0
  2  3  1  0  0  0  0
  2  7  2  0  0  0  0
  3  4  2  0  0  0  0
  4  5  1  0  0  0  0
  4 36  1  0  0  0  0
  5  6  2  0  0  0  0
  6  7  1  0  0  0  0
  6 10  1  0  0  0  0
  7  8  1  0  0  0  0
  8  9  2  0  0  0  0
  9 10  1  0  0  0  0
  9 37  1  0  0  0  0
 10 11  1  0  0  0  0
 11 12  1  0  0  0  0
 11 32  1  0  0  0  0
 11 38  1  6  0  0  0
 12 13  1  0  0  0  0
 13 14  1  0  0  0  0
 13 30  1  0  0  0  0
 13 39  1  1  0  0  0
 14 15  1  0  0  0  0
 14 40  1  0  0  0  0
 14 41  1  0  0  0  0
 15 16  1  0  0  0  0
 16 17  2  0  0  0  0
 16 18  1  0  0  0  0
 16 19  1  0  0  0  0
 18 42  1  0  0  0  0
 19 20  1  0  0  0  0
 20 21  2  0  0  0  0
 20 22  1  0  0  0  0
 20 23  1  0  0  0  0
 22 43  1  0  0  0  0
 23 24  1  0  0  0  0
 24 25  1  0  0  0  0
 24 44  1  0  0  0  0
 24 45  1  0  0  0  0
 25 26  1  0  0  0  0
 25 27  1  0  0  0  0
 25 46  1  0  0  0  0
 26 47  1  0  0  0  0
 27 28  2  0  0  0  0
 27 29  1  0  0  0  0
 29 48  1  0  0  0  0
 30 31  1  0  0  0  0
 30 32  1  0  0  0  0
 30 49  1  6  0  0  0
 31 50  1  0  0  0  0
 32 33  1  0  0  0  0
 32 51  1  6  0  0  0
 33 52  1  0  0  0  0
M  END
$$$$
