CHEBI:18330
 OpenBabel04252409243D

 51 54  0  0  1  0  0  0  0  0999 V2000
   -0.8095    1.1017   -3.1044 O   0  0  0  0  0  0  0  0  0  0  0  0
   -0.5438    2.2243   -3.5209 C   0  0  0  0  0  0  0  0  0  0  0  0
   -1.3095    2.8405   -4.6128 C   0  0  0  0  0  0  0  0  0  0  0  0
   -0.9909    4.0794   -5.0161 C   0  0  0  0  0  0  0  0  0  0  0  0
   -1.7091    4.7530   -6.1212 C   0  0  0  0  0  0  0  0  0  0  0  0
   -3.0897    4.5803   -6.3227 C   0  0  0  0  0  0  0  0  0  0  0  0
   -3.7511    5.2222   -7.3758 C   0  0  0  0  0  0  0  0  0  0  0  0
   -3.0345    6.0520   -8.2288 C   0  0  0  0  0  0  0  0  0  0  0  0
   -3.6357    6.6945   -9.2690 O   0  0  0  0  0  0  0  0  0  0  0  0
   -1.6741    6.2539   -8.0423 C   0  0  0  0  0  0  0  0  0  0  0  0
   -1.0147    5.6088   -6.9921 C   0  0  0  0  0  0  0  0  0  0  0  0
    0.0433    4.8264   -4.4695 O   0  0  0  0  0  0  0  0  0  0  0  0
    0.7932    4.2751   -3.4608 C   0  0  0  0  0  0  0  0  0  0  0  0
    1.8345    5.0487   -2.9554 C   0  0  0  0  0  0  0  0  0  0  0  0
    2.6347    4.5420   -1.9290 C   0  0  0  0  0  0  0  0  0  0  0  0
    3.6606    5.3079   -1.4474 O   0  0  0  0  0  0  0  0  0  0  0  0
    2.4213    3.2604   -1.3857 C   0  0  0  0  0  0  0  0  0  0  0  0
    3.2843    2.7166   -0.2532 C   0  0  2  0  0  0  0  0  0  0  0  0
    3.1723    3.6417    0.8387 O   0  0  0  0  0  0  0  0  0  0  0  0
    3.9527    3.2769    1.9891 C   0  0  2  0  0  0  0  0  0  0  0  0
    3.6798    4.3424    3.0576 C   0  0  0  0  0  0  0  0  0  0  0  0
    3.8870    5.6506    2.5176 O   0  0  0  0  0  0  0  0  0  0  0  0
    5.4397    3.1958    1.6274 C   0  0  1  0  0  0  0  0  0  0  0  0
    6.2214    2.7828    2.7534 O   0  0  0  0  0  0  0  0  0  0  0  0
    5.6263    2.1727    0.5083 C   0  0  2  0  0  0  0  0  0  0  0  0
    7.0124    2.1449    0.1209 O   0  0  0  0  0  0  0  0  0  0  0  0
    4.7493    2.4967   -0.7025 C   0  0  1  0  0  0  0  0  0  0  0  0
    4.8862    1.3986   -1.6245 O   0  0  0  0  0  0  0  0  0  0  0  0
    1.3726    2.4935   -1.9221 C   0  0  0  0  0  0  0  0  0  0  0  0
    1.1812    1.2281   -1.4264 O   0  0  0  0  0  0  0  0  0  0  0  0
    0.5606    3.0037   -2.9481 C   0  0  0  0  0  0  0  0  0  0  0  0
   -2.0974    2.2403   -5.0484 H   0  0  0  0  0  0  0  0  0  0  0  0
   -3.6758    3.9511   -5.6565 H   0  0  0  0  0  0  0  0  0  0  0  0
   -4.8171    5.0648   -7.5078 H   0  0  0  0  0  0  0  0  0  0  0  0
   -4.5761    6.4521   -9.2860 H   0  0  0  0  0  0  0  0  0  0  0  0
   -1.1254    6.9097   -8.7125 H   0  0  0  0  0  0  0  0  0  0  0  0
    0.0531    5.7778   -6.8696 H   0  0  0  0  0  0  0  0  0  0  0  0
    2.0114    6.0374   -3.3692 H   0  0  0  0  0  0  0  0  0  0  0  0
    3.6302    6.1932   -1.8484 H   0  0  0  0  0  0  0  0  0  0  0  0
    2.8804    1.7590    0.0959 H   0  0  0  0  0  0  0  0  0  0  0  0
    3.6034    2.3114    2.3776 H   0  0  0  0  0  0  0  0  0  0  0  0
    2.6318    4.2942    3.3724 H   0  0  0  0  0  0  0  0  0  0  0  0
    4.3111    4.2168    3.9417 H   0  0  0  0  0  0  0  0  0  0  0  0
    3.4521    5.6299    1.6415 H   0  0  0  0  0  0  0  0  0  0  0  0
    5.8200    4.1712    1.2998 H   0  0  0  0  0  0  0  0  0  0  0  0
    7.1167    2.6249    2.3902 H   0  0  0  0  0  0  0  0  0  0  0  0
    5.4094    1.1629    0.8798 H   0  0  0  0  0  0  0  0  0  0  0  0
    7.0334    1.5937   -0.6874 H   0  0  0  0  0  0  0  0  0  0  0  0
    5.1666    3.3748   -1.2055 H   0  0  0  0  0  0  0  0  0  0  0  0
    4.2022    1.5085   -2.3098 H   0  0  0  0  0  0  0  0  0  0  0  0
    0.3868    0.8337   -1.8558 H   0  0  0  0  0  0  0  0  0  0  0  0
  1  2  2  0  0  0  0
  2  3  1  0  0  0  0
  2 31  1  0  0  0  0
  3  4  2  0  0  0  0
  3 32  1  0  0  0  0
  4  5  1  0  0  0  0
  4 12  1  0  0  0  0
  5  6  1  0  0  0  0
  5 11  2  0  0  0  0
  6  7  2  0  0  0  0
  6 33  1  0  0  0  0
  7  8  1  0  0  0  0
  7 34  1  0  0  0  0
  8  9  1  0  0  0  0
  8 10  2  0  0  0  0
  9 35  1  0  0  0  0
 10 11  1  0  0  0  0
 10 36  1  0  0  0  0
 11 37  1  0  0  0  0
 12 13  1  0  0  0  0
 13 14  1  0  0  0  0
 13 31  2  0  0  0  0
 14 15  2  0  0  0  0
 14 38  1  0  0  0  0
 15 16  1  0  0  0  0
 15 17  1  0  0  0  0
 16 39  1  0  0  0  0
 17 29  2  0  0  0  0
 18 19  1  0  0  0  0
 18 27  1  0  0  0  0
 18 17  1  0  0  0  0
 18 40  1  1  0  0  0
 19 20  1  0  0  0  0
 20 23  1  0  0  0  0
 20 21  1  0  0  0  0
 20 41  1  1  0  0  0
 21 22  1  0  0  0  0
 21 42  1  0  0  0  0
 21 43  1  0  0  0  0
 22 44  1  0  0  0  0
 23 24  1  0  0  0  0
 23 25  1  0  0  0  0
 23 45  1  6  0  0  0
 24 46  1  0  0  0  0
 25 26  1  0  0  0  0
 25 27  1  0  0  0  0
 25 47  1  1  0  0  0
 26 48  1  0  0  0  0
 27 28  1  0  0  0  0
 27 49  1  6  0  0  0
 28 50  1  0  0  0  0
 29 30  1  0  0  0  0
 29 31  1  0  0  0  0
 30 51  1  0  0  0  0
M  END
$$$$
