CHEBI:18234
 OpenBabel04252409133D

139140  0  0  1  0  0  0  0  0999 V2000
    8.0812   12.2674   17.7644 C   0  0  0  0  0  0  0  0  0  0  0  0
    9.5976   12.3969   17.8187 C   0  0  0  0  0  0  0  0  0  0  0  0
   10.1247   12.2303   19.2450 C   0  0  0  0  0  0  0  0  0  0  0  0
   11.6567   12.2500   19.3505 C   0  0  0  0  0  0  0  0  0  0  0  0
   12.2920   13.5704   18.9028 C   0  0  0  0  0  0  0  0  0  0  0  0
   13.7914   13.6798   19.2353 C   0  0  0  0  0  0  0  0  0  0  0  0
   14.6697   12.6483   18.5610 C   0  0  0  0  0  0  0  0  0  0  0  0
   15.5467   11.8631   19.2149 C   0  0  0  0  0  0  0  0  0  0  0  0
   16.4156   10.7806   18.6015 C   0  0  0  0  0  0  0  0  0  0  0  0
   17.9254   11.0138   18.8096 C   0  0  0  0  0  0  0  0  0  0  0  0
   18.7896    9.7329   18.9685 C   0  0  0  0  0  0  0  0  0  0  0  0
   18.8618    8.8034   17.7456 C   0  0  0  0  0  0  0  0  0  0  0  0
   19.7502    7.5220   17.9472 C   0  0  0  0  0  0  0  0  0  0  0  0
   19.7691    6.6896   16.6404 C   0  0  0  0  0  0  0  0  0  0  0  0
   20.6898    5.4561   16.4184 C   0  0  0  0  0  0  0  0  0  0  0  0
   21.5815    5.4447   15.1091 C   0  0  0  0  0  0  0  0  0  0  0  0
   22.7657    4.6987   15.4476 O   0  0  0  0  0  0  0  0  0  0  0  0
   21.0225    4.9354   13.7616 C   0  0  0  0  0  0  0  0  0  0  0  0
   20.3165    5.9968   12.8686 C   0  0  0  0  0  0  0  0  0  0  0  0
   19.5443    7.1288   13.5359 C   0  0  0  0  0  0  0  0  0  0  0  0
   20.2270    8.5091   13.8322 C   0  0  0  0  0  0  0  0  0  0  0  0
   21.7415    8.7502   14.1727 C   0  0  0  0  0  0  0  0  0  0  0  0
   22.2740    9.0622   15.6352 C   0  0  0  0  0  0  0  0  0  0  0  0
   23.1079    7.9674   16.3582 C   0  0  0  0  0  0  0  0  0  0  0  0
   23.8760    8.3372   17.6519 C   0  0  0  0  0  0  0  0  0  0  0  0
   24.4835    7.0638   18.3102 C   0  0  0  0  0  0  0  0  0  0  0  0
   25.3109    7.2942   19.5934 C   0  0  0  0  0  0  0  0  0  0  0  0
   24.4542    7.5436   20.8408 C   0  0  0  0  0  0  0  0  0  0  0  0
   25.2786    7.9382   22.0806 C   0  0  0  0  0  0  0  0  0  0  0  0
   24.3471    8.3683   23.2231 C   0  0  0  0  0  0  0  0  0  0  0  0
   25.0867    8.9711   24.4196 C   0  0  0  0  0  0  0  0  0  0  0  0
   24.1042    9.4320   25.4909 C   0  0  0  0  0  0  0  0  0  0  0  0
   22.1831    4.3944   12.9019 C   0  0  0  0  0  0  0  0  0  0  0  0
   23.0847    5.0866   12.4606 O   0  0  0  0  0  0  0  0  0  0  0  0
   22.1113    3.0439   12.7322 O   0  0  0  0  0  0  0  0  0  0  0  0
   23.1741    2.4312   11.9690 C   0  0  0  0  0  0  0  0  0  0  0  0
   24.4768    2.2058   12.7686 C   0  0  1  0  0  0  0  0  0  0  0  0
   25.3696    1.3987   11.9797 O   0  0  0  0  0  0  0  0  0  0  0  0
   26.6901    1.2259   12.5331 C   0  0  2  0  0  0  0  0  0  0  0  0
   27.0964   -0.1344   12.2722 O   0  0  0  0  0  0  0  0  0  0  0  0
   27.7773   -0.2665   11.0108 C   0  0  1  0  0  0  0  0  0  0  0  0
   28.4529   -1.5364   10.8910 O   0  0  0  0  0  0  0  0  0  0  0  0
   27.6309   -2.6908   10.6418 C   0  0  2  0  0  0  0  0  0  0  0  0
   28.5637   -3.8322   10.1757 C   0  0  0  0  0  0  0  0  0  0  0  0
   29.3593   -4.3374   11.2465 O   0  0  0  0  0  0  0  0  0  0  0  0
   26.5693   -2.4787    9.5517 C   0  0  1  0  0  0  0  0  0  0  0  0
   25.6147   -3.5484    9.5562 O   0  0  0  0  0  0  0  0  0  0  0  0
   25.8283   -1.1628    9.7561 C   0  0  2  0  0  0  0  0  0  0  0  0
   24.9286   -0.9711    8.6488 O   0  0  0  0  0  0  0  0  0  0  0  0
   26.8364   -0.0211    9.8110 C   0  0  1  0  0  0  0  0  0  0  0  0
   27.5658    0.0504    8.5747 O   0  0  0  0  0  0  0  0  0  0  0  0
   26.7687    1.5713   14.0427 C   0  0  2  0  0  0  0  0  0  0  0  0
   27.9727    1.1091   14.6612 O   0  0  0  0  0  0  0  0  0  0  0  0
   25.5411    1.0453   14.7836 C   0  0  1  0  0  0  0  0  0  0  0  0
   25.6078    1.5254   16.1395 O   0  0  0  0  0  0  0  0  0  0  0  0
   24.2295    1.5113   14.1201 C   0  0  2  0  0  0  0  0  0  0  0  0
   23.3913    0.3580   13.9506 O   0  0  0  0  0  0  0  0  0  0  0  0
    7.5988   13.0253   18.3902 H   0  0  0  0  0  0  0  0  0  0  0  0
    7.7570   11.2802   18.1091 H   0  0  0  0  0  0  0  0  0  0  0  0
    7.7257   12.4004   16.7375 H   0  0  0  0  0  0  0  0  0  0  0  0
    9.8767   13.3791   17.4231 H   0  0  0  0  0  0  0  0  0  0  0  0
   10.0452   11.6400   17.1648 H   0  0  0  0  0  0  0  0  0  0  0  0
    9.7690   11.2728   19.6468 H   0  0  0  0  0  0  0  0  0  0  0  0
    9.7026   13.0138   19.8864 H   0  0  0  0  0  0  0  0  0  0  0  0
   11.9238   12.0607   20.3976 H   0  0  0  0  0  0  0  0  0  0  0  0
   12.0679   11.4222   18.7618 H   0  0  0  0  0  0  0  0  0  0  0  0
   11.7709   14.4018   19.3962 H   0  0  0  0  0  0  0  0  0  0  0  0
   12.1498   13.7076   17.8244 H   0  0  0  0  0  0  0  0  0  0  0  0
   13.9154   13.6427   20.3249 H   0  0  0  0  0  0  0  0  0  0  0  0
   14.1330   14.6740   18.9198 H   0  0  0  0  0  0  0  0  0  0  0  0
   14.5715   12.5683   17.4806 H   0  0  0  0  0  0  0  0  0  0  0  0
   15.6266   11.9654   20.2968 H   0  0  0  0  0  0  0  0  0  0  0  0
   16.2074   10.6864   17.5291 H   0  0  0  0  0  0  0  0  0  0  0  0
   16.1219    9.8338   19.0682 H   0  0  0  0  0  0  0  0  0  0  0  0
   18.0767   11.6167   19.7155 H   0  0  0  0  0  0  0  0  0  0  0  0
   18.3107   11.6203   17.9793 H   0  0  0  0  0  0  0  0  0  0  0  0
   18.4257    9.1687   19.8336 H   0  0  0  0  0  0  0  0  0  0  0  0
   19.8092   10.0604   19.2112 H   0  0  0  0  0  0  0  0  0  0  0  0
   19.2572    9.3873   16.9055 H   0  0  0  0  0  0  0  0  0  0  0  0
   17.8505    8.4935   17.4615 H   0  0  0  0  0  0  0  0  0  0  0  0
   19.3616    6.9237   18.7761 H   0  0  0  0  0  0  0  0  0  0  0  0
   20.7660    7.8353   18.2119 H   0  0  0  0  0  0  0  0  0  0  0  0
   20.0661    7.4235   15.9126 H   0  0  0  0  0  0  0  0  0  0  0  0
   18.7378    6.3814   16.4378 H   0  0  0  0  0  0  0  0  0  0  0  0
   21.3495    5.3576   17.2900 H   0  0  0  0  0  0  0  0  0  0  0  0
   20.0785    4.5466   16.4148 H   0  0  0  0  0  0  0  0  0  0  0  0
   21.9262    6.4434   14.9071 H   0  0  0  0  0  0  0  0  0  0  0  0
   23.5099    5.1366   14.9861 H   0  0  0  0  0  0  0  0  0  0  0  0
   20.3312    4.1069   13.9584 H   0  0  0  0  0  0  0  0  0  0  0  0
   19.5910    5.4248   12.2668 H   0  0  0  0  0  0  0  0  0  0  0  0
   20.9920    6.4343   12.1249 H   0  0  0  0  0  0  0  0  0  0  0  0
   18.9956    6.7245   14.3832 H   0  0  0  0  0  0  0  0  0  0  0  0
   18.7123    7.3696   12.8543 H   0  0  0  0  0  0  0  0  0  0  0  0
   19.5976    9.0522   14.5486 H   0  0  0  0  0  0  0  0  0  0  0  0
   20.0728    9.0562   12.8892 H   0  0  0  0  0  0  0  0  0  0  0  0
   22.3878    8.0467   13.6418 H   0  0  0  0  0  0  0  0  0  0  0  0
   21.9270    9.7105   13.6647 H   0  0  0  0  0  0  0  0  0  0  0  0
   21.4564    9.4008   16.2764 H   0  0  0  0  0  0  0  0  0  0  0  0
   22.9507    9.9213   15.5365 H   0  0  0  0  0  0  0  0  0  0  0  0
   23.8147    7.5219   15.6491 H   0  0  0  0  0  0  0  0  0  0  0  0
   22.4255    7.1962   16.6863 H   0  0  0  0  0  0  0  0  0  0  0  0
   23.1961    8.8232   18.3589 H   0  0  0  0  0  0  0  0  0  0  0  0
   24.6788    9.0423   17.4140 H   0  0  0  0  0  0  0  0  0  0  0  0
   25.1415    6.5804   17.5759 H   0  0  0  0  0  0  0  0  0  0  0  0
   23.6859    6.3415   18.5287 H   0  0  0  0  0  0  0  0  0  0  0  0
   26.0144    8.1188   19.4367 H   0  0  0  0  0  0  0  0  0  0  0  0
   25.9172    6.3959   19.7777 H   0  0  0  0  0  0  0  0  0  0  0  0
   23.7299    8.3355   20.6272 H   0  0  0  0  0  0  0  0  0  0  0  0
   23.8813    6.6367   21.0742 H   0  0  0  0  0  0  0  0  0  0  0  0
   25.9563    8.7621   21.8282 H   0  0  0  0  0  0  0  0  0  0  0  0
   25.9015    7.0958   22.4075 H   0  0  0  0  0  0  0  0  0  0  0  0
   23.7542    7.5075   23.5548 H   0  0  0  0  0  0  0  0  0  0  0  0
   23.6412    9.1160   22.8413 H   0  0  0  0  0  0  0  0  0  0  0  0
   25.6818    9.8312   24.0917 H   0  0  0  0  0  0  0  0  0  0  0  0
   25.7797    8.2409   24.8528 H   0  0  0  0  0  0  0  0  0  0  0  0
   23.6400    8.5747   25.9891 H   0  0  0  0  0  0  0  0  0  0  0  0
   23.3068   10.0475   25.0606 H   0  0  0  0  0  0  0  0  0  0  0  0
   24.6160   10.0296   26.2520 H   0  0  0  0  0  0  0  0  0  0  0  0
   23.3829    3.0139   11.0612 H   0  0  0  0  0  0  0  0  0  0  0  0
   22.7942    1.4700   11.6014 H   0  0  0  0  0  0  0  0  0  0  0  0
   24.9478    3.1831   12.9328 H   0  0  0  0  0  0  0  0  0  0  0  0
   27.3696    1.9142   12.0146 H   0  0  0  0  0  0  0  0  0  0  0  0
   28.5942    0.4645   10.9819 H   0  0  0  0  0  0  0  0  0  0  0  0
   27.1650   -2.9808   11.5911 H   0  0  0  0  0  0  0  0  0  0  0  0
   27.9991   -4.6740    9.7622 H   0  0  0  0  0  0  0  0  0  0  0  0
   29.2546   -3.4737    9.4026 H   0  0  0  0  0  0  0  0  0  0  0  0
   29.8926   -3.5872   11.5637 H   0  0  0  0  0  0  0  0  0  0  0  0
   27.0357   -2.4862    8.5582 H   0  0  0  0  0  0  0  0  0  0  0  0
   24.9481   -3.3045    8.8848 H   0  0  0  0  0  0  0  0  0  0  0  0
   25.2154   -1.2131   10.6647 H   0  0  0  0  0  0  0  0  0  0  0  0
   24.2262   -0.3716    8.9623 H   0  0  0  0  0  0  0  0  0  0  0  0
   26.3125    0.9333    9.8851 H   0  0  0  0  0  0  0  0  0  0  0  0
   26.8993   -0.0352    7.8650 H   0  0  0  0  0  0  0  0  0  0  0  0
   26.7901    2.6636   14.1517 H   0  0  0  0  0  0  0  0  0  0  0  0
   27.8134    1.1823   15.6241 H   0  0  0  0  0  0  0  0  0  0  0  0
   25.5909   -0.0473   14.8557 H   0  0  0  0  0  0  0  0  0  0  0  0
   24.7757    1.2582   16.5758 H   0  0  0  0  0  0  0  0  0  0  0  0
   23.6822    2.1924   14.7797 H   0  0  0  0  0  0  0  0  0  0  0  0
   23.8437   -0.2482   13.3345 H   0  0  0  0  0  0  0  0  0  0  0  0
  1  2  1  0  0  0  0
  1 58  1  0  0  0  0
  1 59  1  0  0  0  0
  1 60  1  0  0  0  0
  2  3  1  0  0  0  0
  2 61  1  0  0  0  0
  2 62  1  0  0  0  0
  3  4  1  0  0  0  0
  3 63  1  0  0  0  0
  3 64  1  0  0  0  0
  4  5  1  0  0  0  0
  4 65  1  0  0  0  0
  4 66  1  0  0  0  0
  5  6  1  0  0  0  0
  5 67  1  0  0  0  0
  5 68  1  0  0  0  0
  6  7  1  0  0  0  0
  6 69  1  0  0  0  0
  6 70  1  0  0  0  0
  7  8  2  0  0  0  0
  7 71  1  0  0  0  0
  8  9  1  0  0  0  0
  8 72  1  0  0  0  0
  9 10  1  0  0  0  0
  9 73  1  0  0  0  0
  9 74  1  0  0  0  0
 10 11  1  0  0  0  0
 10 75  1  0  0  0  0
 10 76  1  0  0  0  0
 11 12  1  0  0  0  0
 11 77  1  0  0  0  0
 11 78  1  0  0  0  0
 12 13  1  0  0  0  0
 12 79  1  0  0  0  0
 12 80  1  0  0  0  0
 13 14  1  0  0  0  0
 13 81  1  0  0  0  0
 13 82  1  0  0  0  0
 14 15  1  0  0  0  0
 14 83  1  0  0  0  0
 14 84  1  0  0  0  0
 15 16  1  0  0  0  0
 15 85  1  0  0  0  0
 15 86  1  0  0  0  0
 16 17  1  0  0  0  0
 16 18  1  0  0  0  0
 16 87  1  0  0  0  0
 17 88  1  0  0  0  0
 18 19  1  0  0  0  0
 18 33  1  0  0  0  0
 18 89  1  0  0  0  0
 19 20  1  0  0  0  0
 19 90  1  0  0  0  0
 19 91  1  0  0  0  0
 20 21  1  0  0  0  0
 20 92  1  0  0  0  0
 20 93  1  0  0  0  0
 21 22  1  0  0  0  0
 21 94  1  0  0  0  0
 21 95  1  0  0  0  0
 22 23  1  0  0  0  0
 22 96  1  0  0  0  0
 22 97  1  0  0  0  0
 23 24  1  0  0  0  0
 23 98  1  0  0  0  0
 23 99  1  0  0  0  0
 24 25  1  0  0  0  0
 24100  1  0  0  0  0
 24101  1  0  0  0  0
 25 26  1  0  0  0  0
 25102  1  0  0  0  0
 25103  1  0  0  0  0
 26 27  1  0  0  0  0
 26104  1  0  0  0  0
 26105  1  0  0  0  0
 27 28  1  0  0  0  0
 27106  1  0  0  0  0
 27107  1  0  0  0  0
 28 29  1  0  0  0  0
 28108  1  0  0  0  0
 28109  1  0  0  0  0
 29 30  1  0  0  0  0
 29110  1  0  0  0  0
 29111  1  0  0  0  0
 30 31  1  0  0  0  0
 30112  1  0  0  0  0
 30113  1  0  0  0  0
 31 32  1  0  0  0  0
 31114  1  0  0  0  0
 31115  1  0  0  0  0
 32116  1  0  0  0  0
 32117  1  0  0  0  0
 32118  1  0  0  0  0
 33 34  2  0  0  0  0
 33 35  1  0  0  0  0
 35 36  1  0  0  0  0
 36119  1  0  0  0  0
 36120  1  0  0  0  0
 37 38  1  0  0  0  0
 37 56  1  0  0  0  0
 37 36  1  0  0  0  0
 37121  1  6  0  0  0
 38 39  1  0  0  0  0
 39 40  1  0  0  0  0
 39 52  1  0  0  0  0
 39122  1  6  0  0  0
 40 41  1  0  0  0  0
 41 42  1  0  0  0  0
 41 50  1  0  0  0  0
 41123  1  6  0  0  0
 42 43  1  0  0  0  0
 43 46  1  0  0  0  0
 43 44  1  0  0  0  0
 43124  1  1  0  0  0
 44 45  1  0  0  0  0
 44125  1  0  0  0  0
 44126  1  0  0  0  0
 45127  1  0  0  0  0
 46 47  1  0  0  0  0
 46 48  1  0  0  0  0
 46128  1  6  0  0  0
 47129  1  0  0  0  0
 48 49  1  0  0  0  0
 48 50  1  0  0  0  0
 48130  1  1  0  0  0
 49131  1  0  0  0  0
 50 51  1  0  0  0  0
 50132  1  6  0  0  0
 51133  1  0  0  0  0
 52 53  1  0  0  0  0
 52 54  1  0  0  0  0
 52134  1  1  0  0  0
 53135  1  0  0  0  0
 54 55  1  0  0  0  0
 54 56  1  0  0  0  0
 54136  1  1  0  0  0
 55137  1  0  0  0  0
 56 57  1  0  0  0  0
 56138  1  1  0  0  0
 57139  1  0  0  0  0
M  END
$$$$
