CHEBI:17649
 OpenBabel04242417013D

 10  9  0  0  0  0  0  0  0  0999 V2000
    2.5694   -1.9312   -1.3922 O   0  0  0  0  0  0  0  0  0  0  0  0
    2.4599   -0.6649   -1.3449 C   0  0  0  0  0  0  0  0  0  0  0  0
    1.5002    0.0301   -1.8155 O   0  5  0  0  0  0  0  0  0  0  0  0
    3.4802    0.1009   -0.4843 C   0  0  0  0  0  0  0  0  0  0  0  0
    3.6863   -0.5741    0.8080 O   0  0  0  0  0  0  0  0  0  0  0  0
    4.8052    0.1151   -1.2678 C   0  0  0  0  0  0  0  0  0  0  0  0
    4.9926    1.0766   -2.0742 O   0  0  0  0  0  0  0  0  0  0  0  0
    5.6654   -0.7536   -0.8952 O   0  5  0  0  0  0  0  0  0  0  0  0
    3.1423    1.1182   -0.2659 H   0  0  0  0  0  0  0  0  0  0  0  0
    4.2932   -1.2937    0.5138 H   0  0  0  0  0  0  0  0  0  0  0  0
  1  2  2  0  0  0  0
  2  3  1  0  0  0  0
  2  4  1  0  0  0  0
  4  5  1  0  0  0  0
  4  6  1  0  0  0  0
  4  9  1  0  0  0  0
  5 10  1  0  0  0  0
  6  7  2  0  0  0  0
  6  8  1  0  0  0  0
M  CHG  2   3  -1   8  -1
M  END
$$$$
