CHEBI:16427
 OpenBabel04242414233D

 99103  0  0  1  0  0  0  0  0999 V2000
    4.3691    5.2810    2.5331 C   0  0  0  0  0  0  0  0  0  0  0  0
    3.8693    5.8023    1.4071 C   0  0  0  0  0  0  0  0  0  0  0  0
    2.5101    5.6398    0.9632 C   0  0  0  0  0  0  0  0  0  0  0  0
    2.0538    5.4897   -0.3012 C   0  0  0  0  0  0  0  0  0  0  0  0
    2.9026    5.3929   -1.5261 C   0  0  0  0  0  0  0  0  0  0  0  0
    0.5993    5.3761   -0.3048 C   0  0  0  0  0  0  0  0  0  0  0  0
   -0.3094    5.2084   -1.2769 C   0  0  0  0  0  0  0  0  0  0  0  0
    0.0152    5.0932   -2.6458 C   0  0  0  0  0  0  0  0  0  0  0  0
   -0.0000    6.2276   -3.4054 N   0  0  0  0  0  0  0  0  0  0  0  0
    0.4109    5.9557   -4.6941 C   0  0  0  0  0  0  0  0  0  0  0  0
    0.5650    7.1123   -5.6383 C   0  0  0  0  0  0  0  0  0  0  0  0
   -0.6711    7.4754   -6.4121 C   0  0  0  0  0  0  0  0  0  0  0  0
   -1.8695    6.8163   -6.2672 N   0  0  0  0  0  0  0  0  0  0  0  0
   -2.8279    7.3913   -7.0638 C   0  0  0  0  0  0  0  0  0  0  0  0
   -4.1650    6.9989   -6.8393 C   0  0  0  0  0  0  0  0  0  0  0  0
   -4.8333    6.0394   -7.4871 C   0  0  0  0  0  0  0  0  0  0  0  0
   -6.0605    5.6354   -7.0416 N   0  0  0  0  0  0  0  0  0  0  0  0
   -6.5129    4.5301   -7.7118 C   0  0  0  0  0  0  0  0  0  0  0  0
   -7.5343    3.9098   -7.5057 O   0  0  0  0  0  0  0  0  0  0  0  0
   -5.4985    4.2465   -8.7505 C   0  0  0  0  0  0  0  0  0  0  0  0
   -5.6906    3.1347   -9.7106 C   0  0  0  0  0  0  0  0  0  0  0  0
   -4.5184    5.1668   -8.6108 C   0  0  0  0  0  0  0  0  0  0  0  0
   -3.4677    5.2730   -9.5982 C   0  0  0  0  0  0  0  0  0  0  0  0
   -3.4554    6.1934  -10.5701 C   0  0  0  0  0  0  0  0  0  0  0  0
   -2.2189    8.3645   -7.8326 C   0  0  0  0  0  0  0  0  0  0  0  0
   -2.8546    9.2100   -8.8818 C   0  0  0  0  0  0  0  0  0  0  0  0
   -0.8630    8.4656   -7.3681 C   0  0  0  0  0  0  0  0  0  0  0  0
    0.1405    9.4889   -7.8066 C   0  0  0  0  0  0  0  0  0  0  0  0
   -0.1446   10.8398   -7.1652 C   0  0  0  0  0  0  0  0  0  0  0  0
    0.8288   11.8682   -7.6619 C   0  0  0  0  0  0  0  0  0  0  0  0
    0.9543   12.1891   -8.8343 O   0  0  0  0  0  0  0  0  0  0  0  0
    1.4983   12.3990   -6.6242 O   0  0  0  0  0  0  0  0  0  0  0  0
    2.4405   13.4880   -6.7418 C   0  0  2  0  0  0  0  0  0  0  0  0
    2.5016   13.9800   -5.4006 O   0  0  0  0  0  0  0  0  0  0  0  0
    3.3179   15.1205   -5.1738 C   0  0  2  0  0  0  0  0  0  0  0  0
    3.2937   15.4842   -3.6797 C   0  0  0  0  0  0  0  0  0  0  0  0
    2.8578   14.7608   -2.7941 O   0  0  0  0  0  0  0  0  0  0  0  0
    3.8699   16.6794   -3.3944 O   0  0  0  0  0  0  0  0  0  0  0  0
    2.8102   16.2890   -6.0088 C   0  0  1  0  0  0  0  0  0  0  0  0
    3.6616   17.4376   -5.8417 O   0  0  0  0  0  0  0  0  0  0  0  0
    2.8284   15.8824   -7.4746 C   0  0  2  0  0  0  0  0  0  0  0  0
    2.3037   16.9672   -8.2571 O   0  0  0  0  0  0  0  0  0  0  0  0
    2.0286   14.6067   -7.7342 C   0  0  1  0  0  0  0  0  0  0  0  0
    2.3050   14.2830   -9.1090 O   0  0  0  0  0  0  0  0  0  0  0  0
    0.6222    4.5801   -4.7845 C   0  0  0  0  0  0  0  0  0  0  0  0
    1.0702    3.6870   -5.9216 C   0  0  0  0  0  0  0  0  0  0  0  0
    1.3294    4.2874   -7.2913 C   0  0  0  0  0  0  0  0  0  0  0  0
    0.0529    4.6951   -7.9584 C   0  0  0  0  0  0  0  0  0  0  0  0
   -1.0502    4.2119   -7.7668 O   0  0  0  0  0  0  0  0  0  0  0  0
    0.2395    5.6880   -8.8500 O   0  0  0  0  0  0  0  0  0  0  0  0
    0.3574    4.0393   -3.4676 C   0  0  0  0  0  0  0  0  0  0  0  0
    0.4884    2.6076   -3.0642 C   0  0  0  0  0  0  0  0  0  0  0  0
    0.2277    5.4812    1.0039 N   0  0  0  0  0  0  0  0  0  0  0  0
    1.3035    5.6460    1.8421 C   0  0  0  0  0  0  0  0  0  0  0  0
    1.2625    5.7794    3.0507 O   0  0  0  0  0  0  0  0  0  0  0  0
    5.4102    5.4326    2.7989 H   0  0  0  0  0  0  0  0  0  0  0  0
    3.7643    4.6825    3.2087 H   0  0  0  0  0  0  0  0  0  0  0  0
    4.5310    6.3709    0.7583 H   0  0  0  0  0  0  0  0  0  0  0  0
    3.9689    5.4995   -1.3050 H   0  0  0  0  0  0  0  0  0  0  0  0
    2.6524    6.1794   -2.2432 H   0  0  0  0  0  0  0  0  0  0  0  0
    2.7865    4.4138   -1.9996 H   0  0  0  0  0  0  0  0  0  0  0  0
   -1.3641    5.1408   -1.0207 H   0  0  0  0  0  0  0  0  0  0  0  0
   -0.2195    7.1520   -3.0562 H   0  0  0  0  0  0  0  0  0  0  0  0
    1.3901    6.9279   -6.3304 H   0  0  0  0  0  0  0  0  0  0  0  0
    0.8704    7.9972   -5.0618 H   0  0  0  0  0  0  0  0  0  0  0  0
   -2.0236    6.0277   -5.6491 H   0  0  0  0  0  0  0  0  0  0  0  0
   -4.6514    7.4937   -6.0009 H   0  0  0  0  0  0  0  0  0  0  0  0
   -6.5555    6.0132   -6.2488 H   0  0  0  0  0  0  0  0  0  0  0  0
   -6.4410    3.4026  -10.4604 H   0  0  0  0  0  0  0  0  0  0  0  0
   -6.0311    2.2331   -9.1903 H   0  0  0  0  0  0  0  0  0  0  0  0
   -4.7627    2.8752  -10.2291 H   0  0  0  0  0  0  0  0  0  0  0  0
   -2.7005    4.5043   -9.5663 H   0  0  0  0  0  0  0  0  0  0  0  0
   -4.2349    6.9451  -10.6510 H   0  0  0  0  0  0  0  0  0  0  0  0
   -2.6688    6.2045  -11.3171 H   0  0  0  0  0  0  0  0  0  0  0  0
   -3.9019    8.9397   -9.0433 H   0  0  0  0  0  0  0  0  0  0  0  0
   -2.3241    9.0854   -9.8323 H   0  0  0  0  0  0  0  0  0  0  0  0
   -2.8227   10.2676   -8.6083 H   0  0  0  0  0  0  0  0  0  0  0  0
    0.1291    9.5689   -8.9001 H   0  0  0  0  0  0  0  0  0  0  0  0
    1.1548    9.1670   -7.5386 H   0  0  0  0  0  0  0  0  0  0  0  0
   -0.0837   10.7620   -6.0720 H   0  0  0  0  0  0  0  0  0  0  0  0
   -1.1515   11.2079   -7.3884 H   0  0  0  0  0  0  0  0  0  0  0  0
    3.4124   13.0565   -7.0097 H   0  0  0  0  0  0  0  0  0  0  0  0
    4.3599   14.8714   -5.4112 H   0  0  0  0  0  0  0  0  0  0  0  0
    4.0955   17.1950   -4.2082 H   0  0  0  0  0  0  0  0  0  0  0  0
    1.7980   16.5861   -5.7075 H   0  0  0  0  0  0  0  0  0  0  0  0
    3.3906   18.0491   -6.5644 H   0  0  0  0  0  0  0  0  0  0  0  0
    3.8654   15.7578   -7.8138 H   0  0  0  0  0  0  0  0  0  0  0  0
    2.2097   16.6032   -9.1627 H   0  0  0  0  0  0  0  0  0  0  0  0
    0.9544   14.8128   -7.6620 H   0  0  0  0  0  0  0  0  0  0  0  0
    1.7635   13.4928   -9.3349 H   0  0  0  0  0  0  0  0  0  0  0  0
    0.3298    2.8809   -6.0202 H   0  0  0  0  0  0  0  0  0  0  0  0
    2.0019    3.2033   -5.5989 H   0  0  0  0  0  0  0  0  0  0  0  0
    1.7931    3.5332   -7.9379 H   0  0  0  0  0  0  0  0  0  0  0  0
    2.0213    5.1300   -7.2260 H   0  0  0  0  0  0  0  0  0  0  0  0
   -0.6681    6.0112   -9.0459 H   0  0  0  0  0  0  0  0  0  0  0  0
    0.3012    2.4661   -1.9953 H   0  0  0  0  0  0  0  0  0  0  0  0
    1.5007    2.2458   -3.2736 H   0  0  0  0  0  0  0  0  0  0  0  0
   -0.2239    1.9880   -3.6176 H   0  0  0  0  0  0  0  0  0  0  0  0
   -0.7161    5.4482    1.3579 H   0  0  0  0  0  0  0  0  0  0  0  0
  1  2  2  0  0  0  0
  1 56  1  0  0  0  0
  1 57  1  0  0  0  0
  2  3  1  0  0  0  0
  2 58  1  0  0  0  0
  3  4  2  0  0  0  0
  3 54  1  0  0  0  0
  4  5  1  0  0  0  0
  4  6  1  0  0  0  0
  5 59  1  0  0  0  0
  5 60  1  0  0  0  0
  5 61  1  0  0  0  0
  6  7  2  0  0  0  0
  6 53  1  0  0  0  0
  7  8  1  0  0  0  0
  7 62  1  0  0  0  0
  8  9  1  0  0  0  0
  8 51  2  0  0  0  0
  9 10  1  0  0  0  0
  9 63  1  0  0  0  0
 10 11  1  0  0  0  0
 10 45  2  0  0  0  0
 11 12  1  0  0  0  0
 11 64  1  0  0  0  0
 11 65  1  0  0  0  0
 12 13  1  0  0  0  0
 12 27  2  0  0  0  0
 13 14  1  0  0  0  0
 13 66  1  0  0  0  0
 14 15  1  0  0  0  0
 14 25  2  0  0  0  0
 15 16  2  0  0  0  0
 15 67  1  0  0  0  0
 16 17  1  0  0  0  0
 16 22  1  0  0  0  0
 17 18  1  0  0  0  0
 17 68  1  0  0  0  0
 18 19  2  0  0  0  0
 18 20  1  0  0  0  0
 20 21  1  0  0  0  0
 20 22  2  0  0  0  0
 21 69  1  0  0  0  0
 21 70  1  0  0  0  0
 21 71  1  0  0  0  0
 22 23  1  0  0  0  0
 23 24  2  0  0  0  0
 23 72  1  0  0  0  0
 24 73  1  0  0  0  0
 24 74  1  0  0  0  0
 25 26  1  0  0  0  0
 25 27  1  0  0  0  0
 26 75  1  0  0  0  0
 26 76  1  0  0  0  0
 26 77  1  0  0  0  0
 27 28  1  0  0  0  0
 28 29  1  0  0  0  0
 28 78  1  0  0  0  0
 28 79  1  0  0  0  0
 29 30  1  0  0  0  0
 29 80  1  0  0  0  0
 29 81  1  0  0  0  0
 30 31  2  0  0  0  0
 30 32  1  0  0  0  0
 33 34  1  0  0  0  0
 33 43  1  0  0  0  0
 33 32  1  0  0  0  0
 33 82  1  6  0  0  0
 34 35  1  0  0  0  0
 35 39  1  0  0  0  0
 35 36  1  0  0  0  0
 35 83  1  6  0  0  0
 36 37  2  0  0  0  0
 36 38  1  0  0  0  0
 38 84  1  0  0  0  0
 39 40  1  0  0  0  0
 39 41  1  0  0  0  0
 39 85  1  1  0  0  0
 40 86  1  0  0  0  0
 41 42  1  0  0  0  0
 41 43  1  0  0  0  0
 41 87  1  6  0  0  0
 42 88  1  0  0  0  0
 43 44  1  0  0  0  0
 43 89  1  1  0  0  0
 44 90  1  0  0  0  0
 45 46  1  0  0  0  0
 45 51  1  0  0  0  0
 46 47  1  0  0  0  0
 46 91  1  0  0  0  0
 46 92  1  0  0  0  0
 47 48  1  0  0  0  0
 47 93  1  0  0  0  0
 47 94  1  0  0  0  0
 48 49  2  0  0  0  0
 48 50  1  0  0  0  0
 50 95  1  0  0  0  0
 51 52  1  0  0  0  0
 52 96  1  0  0  0  0
 52 97  1  0  0  0  0
 52 98  1  0  0  0  0
 53 54  1  0  0  0  0
 53 99  1  0  0  0  0
 54 55  2  0  0  0  0
M  END
$$$$
