CHEBI:4910
 OpenBabel04242411023D

 34 35  0  0  1  0  0  0  0  0999 V2000
    1.0529    2.9983    2.1020 C   0  0  0  0  0  0  0  0  0  0  0  0
    0.6420    2.3414    0.7980 C   0  0  0  0  0  0  0  0  0  0  0  0
    1.4762    2.7973   -0.2765 O   0  0  0  0  0  0  0  0  0  0  0  0
    2.6347    2.1055   -0.4716 C   0  0  0  0  0  0  0  0  0  0  0  0
    3.0068    1.1728    0.2273 O   0  0  0  0  0  0  0  0  0  0  0  0
    3.3280    2.6302   -1.6210 C   0  0  0  0  0  0  0  0  0  0  0  0
    2.9552    3.6760   -2.4504 C   0  0  0  0  0  0  0  0  0  0  0  0
    3.8534    3.8741   -3.4610 N   0  0  0  0  0  0  0  0  0  0  0  0
    4.7744    2.9606   -3.2762 C   0  0  0  0  0  0  0  0  0  0  0  0
    4.5239    2.1933   -2.1655 N   0  0  0  0  0  0  0  0  0  0  0  0
    5.4125    1.1318   -1.6804 C   0  0  2  0  0  0  0  0  0  0  0  0
    6.7793    1.6950   -1.2679 C   0  0  0  0  0  0  0  0  0  0  0  0
    5.4550   -0.0209   -2.6752 C   0  0  0  0  0  0  0  0  0  0  0  0
    4.4161   -0.9696   -2.6602 C   0  0  0  0  0  0  0  0  0  0  0  0
    4.4040   -2.0352   -3.5619 C   0  0  0  0  0  0  0  0  0  0  0  0
    5.4273   -2.1688   -4.4958 C   0  0  0  0  0  0  0  0  0  0  0  0
    6.4613   -1.2369   -4.5293 C   0  0  0  0  0  0  0  0  0  0  0  0
    6.4759   -0.1694   -3.6277 C   0  0  0  0  0  0  0  0  0  0  0  0
    0.3832    2.6990    2.9134 H   0  0  0  0  0  0  0  0  0  0  0  0
    1.0283    4.0888    2.0080 H   0  0  0  0  0  0  0  0  0  0  0  0
    2.0766    2.7244    2.3753 H   0  0  0  0  0  0  0  0  0  0  0  0
   -0.3844    2.6301    0.5489 H   0  0  0  0  0  0  0  0  0  0  0  0
    0.6567    1.2483    0.8773 H   0  0  0  0  0  0  0  0  0  0  0  0
    2.0703    4.2957   -2.3679 H   0  0  0  0  0  0  0  0  0  0  0  0
    5.6406    2.8129   -3.9086 H   0  0  0  0  0  0  0  0  0  0  0  0
    4.9863    0.7315   -0.7583 H   0  0  0  0  0  0  0  0  0  0  0  0
    7.3010    2.1854   -2.0965 H   0  0  0  0  0  0  0  0  0  0  0  0
    7.4289    0.9002   -0.8851 H   0  0  0  0  0  0  0  0  0  0  0  0
    6.6607    2.4433   -0.4758 H   0  0  0  0  0  0  0  0  0  0  0  0
    3.6040   -0.8842   -1.9392 H   0  0  0  0  0  0  0  0  0  0  0  0
    3.5938   -2.7594   -3.5356 H   0  0  0  0  0  0  0  0  0  0  0  0
    5.4174   -2.9971   -5.1995 H   0  0  0  0  0  0  0  0  0  0  0  0
    7.2580   -1.3390   -5.2622 H   0  0  0  0  0  0  0  0  0  0  0  0
    7.2961    0.5409   -3.6913 H   0  0  0  0  0  0  0  0  0  0  0  0
  1  2  1  0  0  0  0
  1 19  1  0  0  0  0
  1 20  1  0  0  0  0
  1 21  1  0  0  0  0
  2  3  1  0  0  0  0
  2 22  1  0  0  0  0
  2 23  1  0  0  0  0
  3  4  1  0  0  0  0
  4  5  2  0  0  0  0
  4  6  1  0  0  0  0
  6  7  2  0  0  0  0
  6 10  1  0  0  0  0
  7  8  1  0  0  0  0
  7 24  1  0  0  0  0
  8  9  2  0  0  0  0
  9 10  1  0  0  0  0
  9 25  1  0  0  0  0
 11 13  1  0  0  0  0
 11 12  1  0  0  0  0
 11 10  1  0  0  0  0
 11 26  1  1  0  0  0
 12 27  1  0  0  0  0
 12 28  1  0  0  0  0
 12 29  1  0  0  0  0
 13 14  1  0  0  0  0
 13 18  2  0  0  0  0
 14 15  2  0  0  0  0
 14 30  1  0  0  0  0
 15 16  1  0  0  0  0
 15 31  1  0  0  0  0
 16 17  2  0  0  0  0
 16 32  1  0  0  0  0
 17 18  1  0  0  0  0
 17 33  1  0  0  0  0
 18 34  1  0  0  0  0
M  END
$$$$
