CHEBI:16587
 OpenBabel04242414483D

 78 81  0  0  1  0  0  0  0  0999 V2000
    1.6672    0.4075   -2.7799 C   0  0  0  0  0  0  0  0  0  0  0  0
    2.9737   -0.1197   -2.1706 C   0  0  0  0  0  0  0  0  0  0  0  0
    3.7813    1.0470   -1.5988 C   0  0  0  0  0  0  0  0  0  0  0  0
    2.6190   -0.9964   -1.0935 O   0  0  0  0  0  0  0  0  0  0  0  0
    3.7494   -0.9252   -3.2372 C   0  0  0  0  0  0  0  0  0  0  0  0
    5.1511   -1.4722   -2.8851 C   0  0  0  0  0  0  0  0  0  0  0  0
    5.1756   -2.5539   -1.7911 C   0  0  1  0  0  0  0  0  0  0  0  0
    4.9621   -1.8956   -0.5296 O   0  0  0  0  0  0  0  0  0  0  0  0
    6.5294   -3.3310   -1.6531 C   0  0  2  0  0  0  0  0  0  0  0  0
    6.5152   -4.1408   -0.3332 C   0  0  0  0  0  0  0  0  0  0  0  0
    7.5605   -2.3308   -1.4572 O   0  0  0  0  0  0  0  0  0  0  0  0
    6.9649   -4.1488   -2.9160 C   0  0  1  0  0  0  0  0  0  0  0  0
    8.3737   -4.8042   -2.7444 C   0  0  0  0  0  0  0  0  0  0  0  0
    8.2393   -6.2669   -3.1764 C   0  0  0  0  0  0  0  0  0  0  0  0
    7.1120   -6.2154   -4.2076 C   0  0  1  0  0  0  0  0  0  0  0  0
    7.6558   -5.5696   -5.3718 O   0  0  0  0  0  0  0  0  0  0  0  0
    6.4702   -7.4751   -4.7334 C   0  0  0  0  0  0  0  0  0  0  0  0
    6.9361   -8.6970   -4.4261 C   0  0  0  0  0  0  0  0  0  0  0  0
    6.3826   -9.9205   -5.0433 C   0  0  0  0  0  0  0  0  0  0  0  0
    6.8353  -11.0137   -4.7104 O   0  0  0  0  0  0  0  0  0  0  0  0
    5.3354   -9.7848   -6.1323 C   0  0  2  0  0  0  0  0  0  0  0  0
    6.0363   -9.8010   -7.4995 C   0  0  0  0  0  0  0  0  0  0  0  0
    5.0659   -9.6163   -8.6613 C   0  0  1  0  0  0  0  0  0  0  0  0
    4.2449  -10.7791   -8.8447 O   0  0  0  0  0  0  0  0  0  0  0  0
    4.1634   -8.3896   -8.4676 C   0  0  1  0  0  0  0  0  0  0  0  0
    3.1658   -8.3707   -9.4910 O   0  0  0  0  0  0  0  0  0  0  0  0
    3.4567   -8.4045   -7.1112 C   0  0  0  0  0  0  0  0  0  0  0  0
    4.4174   -8.5503   -5.8990 C   0  0  1  0  0  0  0  0  0  0  0  0
    3.5278   -8.8641   -4.6615 C   0  0  0  0  0  0  0  0  0  0  0  0
    5.2878   -7.2424   -5.6842 C   0  0  1  0  0  0  0  0  0  0  0  0
    4.4090   -5.9930   -5.3336 C   0  0  0  0  0  0  0  0  0  0  0  0
    5.1016   -4.8143   -4.6218 C   0  0  0  0  0  0  0  0  0  0  0  0
    6.0657   -5.2913   -3.5158 C   0  0  2  0  0  0  0  0  0  0  0  0
    5.2665   -6.0467   -2.4282 C   0  0  0  0  0  0  0  0  0  0  0  0
    1.0681    0.9350   -2.0283 H   0  0  0  0  0  0  0  0  0  0  0  0
    1.0459   -0.4187   -3.1438 H   0  0  0  0  0  0  0  0  0  0  0  0
    1.8575    1.0942   -3.6109 H   0  0  0  0  0  0  0  0  0  0  0  0
    3.1887    1.6030   -0.8624 H   0  0  0  0  0  0  0  0  0  0  0  0
    4.0954    1.7418   -2.3837 H   0  0  0  0  0  0  0  0  0  0  0  0
    4.6703    0.7015   -1.0624 H   0  0  0  0  0  0  0  0  0  0  0  0
    1.9905   -0.5170   -0.5206 H   0  0  0  0  0  0  0  0  0  0  0  0
    3.8703   -0.2904   -4.1255 H   0  0  0  0  0  0  0  0  0  0  0  0
    3.1339   -1.7802   -3.5480 H   0  0  0  0  0  0  0  0  0  0  0  0
    5.7989   -0.6340   -2.6047 H   0  0  0  0  0  0  0  0  0  0  0  0
    5.5576   -1.8858   -3.8136 H   0  0  0  0  0  0  0  0  0  0  0  0
    4.3531   -3.2590   -1.9376 H   0  0  0  0  0  0  0  0  0  0  0  0
    4.0134   -1.6408   -0.5283 H   0  0  0  0  0  0  0  0  0  0  0  0
    7.3312   -4.8642   -0.2693 H   0  0  0  0  0  0  0  0  0  0  0  0
    5.5764   -4.6799   -0.1853 H   0  0  0  0  0  0  0  0  0  0  0  0
    6.6455   -3.4835    0.5354 H   0  0  0  0  0  0  0  0  0  0  0  0
    7.1893   -1.7184   -0.7895 H   0  0  0  0  0  0  0  0  0  0  0  0
    7.1180   -3.4069   -3.7136 H   0  0  0  0  0  0  0  0  0  0  0  0
    8.7980   -4.7306   -1.7406 H   0  0  0  0  0  0  0  0  0  0  0  0
    9.0834   -4.2914   -3.4074 H   0  0  0  0  0  0  0  0  0  0  0  0
    7.9859   -6.8919   -2.3135 H   0  0  0  0  0  0  0  0  0  0  0  0
    9.1868   -6.6279   -3.5910 H   0  0  0  0  0  0  0  0  0  0  0  0
    8.4317   -6.0832   -5.6550 H   0  0  0  0  0  0  0  0  0  0  0  0
    7.7711   -8.8667   -3.7555 H   0  0  0  0  0  0  0  0  0  0  0  0
    4.7145  -10.6887   -6.0574 H   0  0  0  0  0  0  0  0  0  0  0  0
    6.5628  -10.7575   -7.6142 H   0  0  0  0  0  0  0  0  0  0  0  0
    6.8021   -9.0168   -7.5397 H   0  0  0  0  0  0  0  0  0  0  0  0
    5.6254   -9.5076   -9.5968 H   0  0  0  0  0  0  0  0  0  0  0  0
    3.9323  -11.0974   -7.9811 H   0  0  0  0  0  0  0  0  0  0  0  0
    4.7530   -7.4737   -8.5733 H   0  0  0  0  0  0  0  0  0  0  0  0
    3.0071   -9.3075   -9.7284 H   0  0  0  0  0  0  0  0  0  0  0  0
    2.7315   -9.2311   -7.1073 H   0  0  0  0  0  0  0  0  0  0  0  0
    2.8374   -7.5041   -7.0168 H   0  0  0  0  0  0  0  0  0  0  0  0
    3.0319   -9.8359   -4.7733 H   0  0  0  0  0  0  0  0  0  0  0  0
    2.7253   -8.1325   -4.5303 H   0  0  0  0  0  0  0  0  0  0  0  0
    4.1050   -8.9058   -3.7338 H   0  0  0  0  0  0  0  0  0  0  0  0
    5.7645   -6.9961   -6.6434 H   0  0  0  0  0  0  0  0  0  0  0  0
    3.5615   -6.2763   -4.7061 H   0  0  0  0  0  0  0  0  0  0  0  0
    3.9630   -5.6101   -6.2609 H   0  0  0  0  0  0  0  0  0  0  0  0
    4.3335   -4.1530   -4.2053 H   0  0  0  0  0  0  0  0  0  0  0  0
    5.6323   -4.2128   -5.3707 H   0  0  0  0  0  0  0  0  0  0  0  0
    4.4882   -5.4147   -1.9943 H   0  0  0  0  0  0  0  0  0  0  0  0
    5.9070   -6.4175   -1.6245 H   0  0  0  0  0  0  0  0  0  0  0  0
    4.7421   -6.9211   -2.8176 H   0  0  0  0  0  0  0  0  0  0  0  0
  1  2  1  0  0  0  0
  1 35  1  0  0  0  0
  1 36  1  0  0  0  0
  1 37  1  0  0  0  0
  2  3  1  0  0  0  0
  2  4  1  0  0  0  0
  2  5  1  0  0  0  0
  3 38  1  0  0  0  0
  3 39  1  0  0  0  0
  3 40  1  0  0  0  0
  4 41  1  0  0  0  0
  5  6  1  0  0  0  0
  5 42  1  0  0  0  0
  5 43  1  0  0  0  0
  6  7  1  0  0  0  0
  6 44  1  0  0  0  0
  6 45  1  0  0  0  0
  7  8  1  0  0  0  0
  7 46  1  1  0  0  0
  8 47  1  0  0  0  0
  9 11  1  1  0  0  0
  9 12  1  0  0  0  0
  9 10  1  0  0  0  0
  9  7  1  0  0  0  0
 10 48  1  0  0  0  0
 10 49  1  0  0  0  0
 10 50  1  0  0  0  0
 11 51  1  0  0  0  0
 12 13  1  0  0  0  0
 12 33  1  0  0  0  0
 12 52  1  6  0  0  0
 13 14  1  0  0  0  0
 13 53  1  0  0  0  0
 13 54  1  0  0  0  0
 14 15  1  0  0  0  0
 14 55  1  0  0  0  0
 14 56  1  0  0  0  0
 15 16  1  6  0  0  0
 15 17  1  0  0  0  0
 15 33  1  0  0  0  0
 16 57  1  0  0  0  0
 17 18  2  0  0  0  0
 17 30  1  0  0  0  0
 18 19  1  0  0  0  0
 18 58  1  0  0  0  0
 19 20  2  0  0  0  0
 19 21  1  0  0  0  0
 21 22  1  0  0  0  0
 21 28  1  0  0  0  0
 21 59  1  1  0  0  0
 22 23  1  0  0  0  0
 22 60  1  0  0  0  0
 22 61  1  0  0  0  0
 23 24  1  0  0  0  0
 23 25  1  0  0  0  0
 23 62  1  6  0  0  0
 24 63  1  0  0  0  0
 25 26  1  0  0  0  0
 25 27  1  0  0  0  0
 25 64  1  6  0  0  0
 26 65  1  0  0  0  0
 27 28  1  0  0  0  0
 27 66  1  0  0  0  0
 27 67  1  0  0  0  0
 28 29  1  1  0  0  0
 28 30  1  0  0  0  0
 29 68  1  0  0  0  0
 29 69  1  0  0  0  0
 29 70  1  0  0  0  0
 30 31  1  0  0  0  0
 30 71  1  6  0  0  0
 31 32  1  0  0  0  0
 31 72  1  0  0  0  0
 31 73  1  0  0  0  0
 32 33  1  0  0  0  0
 32 74  1  0  0  0  0
 32 75  1  0  0  0  0
 33 34  1  1  0  0  0
 34 76  1  0  0  0  0
 34 77  1  0  0  0  0
 34 78  1  0  0  0  0
M  END
$$$$
