CHEBI:18219
 OpenBabel04252409113D

  7  5  0  0  0  0  0  0  0  0999 V2000
    0.8270    0.8674    0.2132 N   0  3  0  0  0  0  0  0  0  0  0  0
    1.4157   -1.4197   -0.3711 O   0  5  0  0  0  0  0  0  0  0  0  0
    1.7429    1.2493    0.4250 H   0  0  0  0  0  0  0  0  0  0  0  0
    0.2038    0.7372    1.0028 H   0  0  0  0  0  0  0  0  0  0  0  0
    1.0748   -0.1454   -0.0387 H   0  0  0  0  0  0  0  0  0  0  0  0
    0.3986    1.1907   -0.6476 H   0  0  0  0  0  0  0  0  0  0  0  0
    1.6621   -2.2985   -0.6069 H   0  0  0  0  0  0  0  0  0  0  0  0
  1  3  1  0  0  0  0
  1  4  1  0  0  0  0
  1  5  1  0  0  0  0
  1  6  1  0  0  0  0
  2  7  1  0  0  0  0
M  CHG  2   1   1   2  -1
M  END
$$$$
