CHEBI:15486
 OpenBabel04242412093D

 96 98  0  0  1  0  0  0  0  0999 V2000
   37.7686  -12.1819    7.9429 C   0  0  0  0  0  0  0  0  0  0  0  0
   37.0051  -11.6452    9.1234 C   0  0  0  0  0  0  0  0  0  0  0  0
   37.5553  -12.0417   10.4671 C   0  0  0  0  0  0  0  0  0  0  0  0
   35.9190  -10.8681    8.9397 C   0  0  0  0  0  0  0  0  0  0  0  0
   35.1244  -10.2428   10.0323 C   0  0  0  0  0  0  0  0  0  0  0  0
   35.3906  -10.3169   11.2192 O   0  0  0  0  0  0  0  0  0  0  0  0
   33.7379   -9.3374    9.4388 S   0  0  0  0  0  0  0  0  0  0  0  0
   33.1455   -8.6882   11.0382 C   0  0  0  0  0  0  0  0  0  0  0  0
   31.9440   -7.7686   10.8573 C   0  0  0  0  0  0  0  0  0  0  0  0
   30.8004   -8.4416   10.2659 N   0  0  0  0  0  0  0  0  0  0  0  0
   29.5260   -7.9717   10.4847 C   0  0  0  0  0  0  0  0  0  0  0  0
   29.2755   -7.0597   11.2670 O   0  0  0  0  0  0  0  0  0  0  0  0
   28.4724   -8.6617    9.6427 C   0  0  0  0  0  0  0  0  0  0  0  0
   27.0811   -8.1427    9.9763 C   0  0  0  0  0  0  0  0  0  0  0  0
   26.9185   -6.7459    9.6230 N   0  0  0  0  0  0  0  0  0  0  0  0
   25.7472   -6.0824    9.9411 C   0  0  0  0  0  0  0  0  0  0  0  0
   24.7437   -6.6519   10.3487 O   0  0  0  0  0  0  0  0  0  0  0  0
   25.8819   -4.5583    9.7209 C   0  0  2  0  0  0  0  0  0  0  0  0
   27.1126   -4.1140   10.3132 O   0  0  0  0  0  0  0  0  0  0  0  0
   24.6852   -3.6788   10.1690 C   0  0  0  0  0  0  0  0  0  0  0  0
   25.0003   -2.2045    9.8112 C   0  0  0  0  0  0  0  0  0  0  0  0
   23.4089   -4.0705    9.3941 C   0  0  0  0  0  0  0  0  0  0  0  0
   24.4413   -3.7804   11.6931 C   0  0  0  0  0  0  0  0  0  0  0  0
   23.3370   -2.9699   12.0623 O   0  0  0  0  0  0  0  0  0  0  0  0
   22.9246   -2.8350   13.6090 P   0  0  0  0  0  0  0  0  0  0  0  0
   21.7212   -1.9776   13.8214 O   0  0  0  0  0  0  0  0  0  0  0  0
   22.7196   -4.3481   14.0876 O   0  0  0  0  0  0  0  0  0  0  0  0
   24.2492   -2.3541   14.3386 O   0  0  0  0  0  0  0  0  0  0  0  0
   24.3810   -2.0600   15.8896 P   0  0  0  0  0  0  0  0  0  0  0  0
   25.6709   -1.4534   16.3332 O   0  0  0  0  0  0  0  0  0  0  0  0
   23.1315   -1.1188   16.2032 O   0  0  0  0  0  0  0  0  0  0  0  0
   24.0086   -3.4520   16.5968 O   0  0  0  0  0  0  0  0  0  0  0  0
   24.0973   -3.5597   18.0158 C   0  0  0  0  0  0  0  0  0  0  0  0
   22.9736   -2.7787   18.7021 C   0  0  1  0  0  0  0  0  0  0  0  0
   21.6992   -3.2733   18.2086 O   0  0  0  0  0  0  0  0  0  0  0  0
   20.9546   -3.7538   19.3396 C   0  0  1  0  0  0  0  0  0  0  0  0
   20.1305   -4.8930   18.9964 N   0  0  0  0  0  0  0  0  0  0  0  0
   18.9362   -5.1679   19.6192 C   0  0  0  0  0  0  0  0  0  0  0  0
   18.4175   -6.3061   19.2167 N   0  0  0  0  0  0  0  0  0  0  0  0
   19.3224   -6.7904   18.2958 C   0  0  0  0  0  0  0  0  0  0  0  0
   19.3465   -7.9774   17.5466 C   0  0  0  0  0  0  0  0  0  0  0  0
   18.3477   -8.9410   17.6291 N   0  0  0  0  0  0  0  0  0  0  0  0
   20.4045   -8.2102   16.7395 N   0  0  0  0  0  0  0  0  0  0  0  0
   21.3797   -7.2768   16.6792 C   0  0  0  0  0  0  0  0  0  0  0  0
   21.4749   -6.1125   17.3571 N   0  0  0  0  0  0  0  0  0  0  0  0
   20.4017   -5.9297   18.1473 C   0  0  0  0  0  0  0  0  0  0  0  0
   21.9787   -4.0637   20.4261 C   0  0  2  0  0  0  0  0  0  0  0  0
   21.3817   -4.1456   21.7119 O   0  0  0  0  0  0  0  0  0  0  0  0
   22.9414   -2.8996   20.2312 C   0  0  2  0  0  0  0  0  0  0  0  0
   22.3599   -1.6873   20.7131 O   0  0  0  0  0  0  0  0  0  0  0  0
   22.4621   -1.2353   22.2373 P   0  0  0  0  0  0  0  0  0  0  0  0
   23.2451   -0.0081   22.5297 O   0  0  0  0  0  0  0  0  0  0  0  0
   20.9285   -1.1304   22.6580 O   0  0  0  0  0  0  0  0  0  0  0  0
   22.9253   -2.5278   23.0593 O   0  0  0  0  0  0  0  0  0  0  0  0
   37.7651  -13.2766    7.9546 H   0  0  0  0  0  0  0  0  0  0  0  0
   38.8065  -11.8347    7.9761 H   0  0  0  0  0  0  0  0  0  0  0  0
   37.3401  -11.8584    6.9885 H   0  0  0  0  0  0  0  0  0  0  0  0
   38.2245  -12.9043   10.3767 H   0  0  0  0  0  0  0  0  0  0  0  0
   36.7632  -12.3433   11.1588 H   0  0  0  0  0  0  0  0  0  0  0  0
   38.1294  -11.2180   10.9026 H   0  0  0  0  0  0  0  0  0  0  0  0
   35.5895  -10.6435    7.9294 H   0  0  0  0  0  0  0  0  0  0  0  0
   33.9535   -8.1288   11.5208 H   0  0  0  0  0  0  0  0  0  0  0  0
   32.8719   -9.5324   11.6803 H   0  0  0  0  0  0  0  0  0  0  0  0
   32.1896   -6.9141   10.2157 H   0  0  0  0  0  0  0  0  0  0  0  0
   31.6538   -7.3651   11.8342 H   0  0  0  0  0  0  0  0  0  0  0  0
   30.9721   -9.0124    9.4459 H   0  0  0  0  0  0  0  0  0  0  0  0
   28.5198   -9.7384    9.8395 H   0  0  0  0  0  0  0  0  0  0  0  0
   28.7027   -8.4880    8.5852 H   0  0  0  0  0  0  0  0  0  0  0  0
   26.8664   -8.2516   11.0459 H   0  0  0  0  0  0  0  0  0  0  0  0
   26.3231   -8.7131    9.4273 H   0  0  0  0  0  0  0  0  0  0  0  0
   27.7434   -6.1493    9.6846 H   0  0  0  0  0  0  0  0  0  0  0  0
   26.0135   -4.4316    8.6378 H   0  0  0  0  0  0  0  0  0  0  0  0
   27.1346   -4.4268   11.2364 H   0  0  0  0  0  0  0  0  0  0  0  0
   25.2391   -2.1027    8.7460 H   0  0  0  0  0  0  0  0  0  0  0  0
   25.8545   -1.8244   10.3823 H   0  0  0  0  0  0  0  0  0  0  0  0
   24.1486   -1.5468   10.0177 H   0  0  0  0  0  0  0  0  0  0  0  0
   23.5994   -4.1031    8.3154 H   0  0  0  0  0  0  0  0  0  0  0  0
   22.6003   -3.3501    9.5612 H   0  0  0  0  0  0  0  0  0  0  0  0
   23.0281   -5.0498    9.6969 H   0  0  0  0  0  0  0  0  0  0  0  0
   25.3256   -3.4417   12.2439 H   0  0  0  0  0  0  0  0  0  0  0  0
   24.2297   -4.8097   11.9942 H   0  0  0  0  0  0  0  0  0  0  0  0
   22.1666   -4.3944   14.8950 H   0  0  0  0  0  0  0  0  0  0  0  0
   23.2339   -0.2087   15.8707 H   0  0  0  0  0  0  0  0  0  0  0  0
   25.0821   -3.2143   18.3485 H   0  0  0  0  0  0  0  0  0  0  0  0
   24.0225   -4.6266   18.2507 H   0  0  0  0  0  0  0  0  0  0  0  0
   23.0329   -1.7240   18.4270 H   0  0  0  0  0  0  0  0  0  0  0  0
   20.2713   -2.9515   19.6477 H   0  0  0  0  0  0  0  0  0  0  0  0
   18.5100   -4.5122   20.3694 H   0  0  0  0  0  0  0  0  0  0  0  0
   17.7991   -8.8670   18.4795 H   0  0  0  0  0  0  0  0  0  0  0  0
   18.6828   -9.8573   17.3647 H   0  0  0  0  0  0  0  0  0  0  0  0
   22.1962   -7.4973   15.9965 H   0  0  0  0  0  0  0  0  0  0  0  0
   22.4947   -5.0108   20.2279 H   0  0  0  0  0  0  0  0  0  0  0  0
   22.0482   -3.8781   22.3793 H   0  0  0  0  0  0  0  0  0  0  0  0
   23.9266   -3.0412   20.6853 H   0  0  0  0  0  0  0  0  0  0  0  0
   20.5240   -0.3052   22.3313 H   0  0  0  0  0  0  0  0  0  0  0  0
   23.0348   -2.2836   24.0007 H   0  0  0  0  0  0  0  0  0  0  0  0
  1  2  1  0  0  0  0
  1 55  1  0  0  0  0
  1 56  1  0  0  0  0
  1 57  1  0  0  0  0
  2  3  1  0  0  0  0
  2  4  2  0  0  0  0
  3 58  1  0  0  0  0
  3 59  1  0  0  0  0
  3 60  1  0  0  0  0
  4  5  1  0  0  0  0
  4 61  1  0  0  0  0
  5  6  2  0  0  0  0
  5  7  1  0  0  0  0
  7  8  1  0  0  0  0
  8  9  1  0  0  0  0
  8 62  1  0  0  0  0
  8 63  1  0  0  0  0
  9 10  1  0  0  0  0
  9 64  1  0  0  0  0
  9 65  1  0  0  0  0
 10 11  1  0  0  0  0
 10 66  1  0  0  0  0
 11 12  2  0  0  0  0
 11 13  1  0  0  0  0
 13 14  1  0  0  0  0
 13 67  1  0  0  0  0
 13 68  1  0  0  0  0
 14 15  1  0  0  0  0
 14 69  1  0  0  0  0
 14 70  1  0  0  0  0
 15 16  1  0  0  0  0
 15 71  1  0  0  0  0
 16 17  2  0  0  0  0
 18 20  1  0  0  0  0
 18 19  1  0  0  0  0
 18 16  1  0  0  0  0
 18 72  1  6  0  0  0
 19 73  1  0  0  0  0
 20 21  1  0  0  0  0
 20 22  1  0  0  0  0
 20 23  1  0  0  0  0
 21 74  1  0  0  0  0
 21 75  1  0  0  0  0
 21 76  1  0  0  0  0
 22 77  1  0  0  0  0
 22 78  1  0  0  0  0
 22 79  1  0  0  0  0
 23 24  1  0  0  0  0
 23 80  1  0  0  0  0
 23 81  1  0  0  0  0
 24 25  1  0  0  0  0
 25 26  2  0  0  0  0
 25 27  1  0  0  0  0
 25 28  1  0  0  0  0
 27 82  1  0  0  0  0
 28 29  1  0  0  0  0
 29 30  2  0  0  0  0
 29 31  1  0  0  0  0
 29 32  1  0  0  0  0
 31 83  1  0  0  0  0
 32 33  1  0  0  0  0
 33 84  1  0  0  0  0
 33 85  1  0  0  0  0
 34 35  1  0  0  0  0
 34 49  1  0  0  0  0
 34 33  1  0  0  0  0
 34 86  1  6  0  0  0
 35 36  1  0  0  0  0
 36 47  1  0  0  0  0
 36 37  1  0  0  0  0
 36 87  1  1  0  0  0
 37 38  1  0  0  0  0
 37 46  1  0  0  0  0
 38 39  2  0  0  0  0
 38 88  1  0  0  0  0
 39 40  1  0  0  0  0
 40 41  1  0  0  0  0
 40 46  2  0  0  0  0
 41 42  1  0  0  0  0
 41 43  2  0  0  0  0
 42 89  1  0  0  0  0
 42 90  1  0  0  0  0
 43 44  1  0  0  0  0
 44 45  2  0  0  0  0
 44 91  1  0  0  0  0
 45 46  1  0  0  0  0
 47 48  1  0  0  0  0
 47 49  1  0  0  0  0
 47 92  1  6  0  0  0
 48 93  1  0  0  0  0
 49 50  1  0  0  0  0
 49 94  1  1  0  0  0
 50 51  1  0  0  0  0
 51 52  2  0  0  0  0
 51 53  1  0  0  0  0
 51 54  1  0  0  0  0
 53 95  1  0  0  0  0
 54 96  1  0  0  0  0
M  END
$$$$
