CHEBI:16083
 OpenBabel04242413473D

 27 28  0  0  1  0  0  0  0  0999 V2000
    2.3418   -0.6237    1.3188 C   0  0  0  0  0  0  0  0  0  0  0  0
    2.8163    0.0631    0.0383 C   0  0  2  0  0  0  0  0  0  0  0  0
    3.8889   -0.7575   -0.6459 C   0  0  0  0  0  0  0  0  0  0  0  0
    4.6723   -1.5366   -0.1036 O   0  0  0  0  0  0  0  0  0  0  0  0
    4.0269   -0.5861   -2.1569 C   0  0  0  0  0  0  0  0  0  0  0  0
    3.2469    0.0402   -2.8445 O   0  0  0  0  0  0  0  0  0  0  0  0
    5.0996   -1.2679   -2.6072 O   0  0  0  0  0  0  0  0  0  0  0  0
    3.2930    1.4684    0.2837 C   0  0  0  0  0  0  0  0  0  0  0  0
    2.7074    2.6101   -0.2318 C   0  0  0  0  0  0  0  0  0  0  0  0
    3.4097    3.6976    0.2090 N   0  0  0  0  0  0  0  0  0  0  0  0
    4.4532    3.2965    1.0081 C   0  0  0  0  0  0  0  0  0  0  0  0
    5.4195    4.0616    1.6730 C   0  0  0  0  0  0  0  0  0  0  0  0
    6.3809    3.3825    2.4253 C   0  0  0  0  0  0  0  0  0  0  0  0
    6.3755    1.9932    2.5045 C   0  0  0  0  0  0  0  0  0  0  0  0
    5.4019    1.2436    1.8332 C   0  0  0  0  0  0  0  0  0  0  0  0
    4.4140    1.9025    1.0703 C   0  0  0  0  0  0  0  0  0  0  0  0
    1.5371   -0.0519    1.7939 H   0  0  0  0  0  0  0  0  0  0  0  0
    3.1469   -0.7369    2.0521 H   0  0  0  0  0  0  0  0  0  0  0  0
    1.9608   -1.6273    1.0986 H   0  0  0  0  0  0  0  0  0  0  0  0
    1.9483    0.0880   -0.6339 H   0  0  0  0  0  0  0  0  0  0  0  0
    5.5409   -1.7112   -1.8438 H   0  0  0  0  0  0  0  0  0  0  0  0
    1.8500    2.7391   -0.8804 H   0  0  0  0  0  0  0  0  0  0  0  0
    3.1988    4.6598   -0.0178 H   0  0  0  0  0  0  0  0  0  0  0  0
    5.4268    5.1450    1.6117 H   0  0  0  0  0  0  0  0  0  0  0  0
    7.1437    3.9482    2.9554 H   0  0  0  0  0  0  0  0  0  0  0  0
    7.1329    1.4823    3.0941 H   0  0  0  0  0  0  0  0  0  0  0  0
    5.4175    0.1601    1.9105 H   0  0  0  0  0  0  0  0  0  0  0  0
  1 17  1  0  0  0  0
  1 18  1  0  0  0  0
  1 19  1  0  0  0  0
  2  8  1  0  0  0  0
  2  3  1  0  0  0  0
  2  1  1  0  0  0  0
  2 20  1  6  0  0  0
  3  4  2  0  0  0  0
  3  5  1  0  0  0  0
  5  6  2  0  0  0  0
  5  7  1  0  0  0  0
  7 21  1  0  0  0  0
  8  9  2  0  0  0  0
  8 16  1  0  0  0  0
  9 10  1  0  0  0  0
  9 22  1  0  0  0  0
 10 11  1  0  0  0  0
 10 23  1  0  0  0  0
 11 12  1  0  0  0  0
 11 16  2  0  0  0  0
 12 13  2  0  0  0  0
 12 24  1  0  0  0  0
 13 14  1  0  0  0  0
 13 25  1  0  0  0  0
 14 15  2  0  0  0  0
 14 26  1  0  0  0  0
 15 16  1  0  0  0  0
 15 27  1  0  0  0  0
M  END
$$$$
