CHEBI:17572
 OpenBabel04242416503D

 17 16  0  0  0  0  0  0  0  0999 V2000
    2.1965    0.1864    1.4350 N   0  0  0  0  0  0  0  0  0  0  0  0
    1.9829    0.5230    0.0308 C   0  0  0  0  0  0  0  0  0  0  0  0
    2.7527   -0.4039   -0.9134 C   0  0  0  0  0  0  0  0  0  0  0  0
    4.2657   -0.4370   -0.7063 C   0  0  0  0  0  0  0  0  0  0  0  0
    4.8926    0.9236   -0.8885 C   0  0  0  0  0  0  0  0  0  0  0  0
    5.0534    1.4361   -1.9984 O   0  0  0  0  0  0  0  0  0  0  0  0
    5.2907    1.7342    0.3528 C   0  0  0  0  0  0  0  0  0  0  0  0
    6.0501    2.7396    0.1951 O   0  0  0  0  0  0  0  0  0  0  0  0
    4.8086    1.3111    1.4555 O   0  5  0  0  0  0  0  0  0  0  0  0
    1.7125    0.8768    2.0083 H   0  0  0  0  0  0  0  0  0  0  0  0
    3.1935    0.4131    1.6486 H   0  0  0  0  0  0  0  0  0  0  0  0
    2.2623    1.5676   -0.1445 H   0  0  0  0  0  0  0  0  0  0  0  0
    0.9126    0.4407   -0.1885 H   0  0  0  0  0  0  0  0  0  0  0  0
    2.5385   -0.0933   -1.9439 H   0  0  0  0  0  0  0  0  0  0  0  0
    2.3658   -1.4257   -0.8109 H   0  0  0  0  0  0  0  0  0  0  0  0
    4.7199   -1.1035   -1.4497 H   0  0  0  0  0  0  0  0  0  0  0  0
    4.5317   -0.8578    0.2680 H   0  0  0  0  0  0  0  0  0  0  0  0
  1  2  1  0  0  0  0
  1 10  1  0  0  0  0
  1 11  1  0  0  0  0
  2  3  1  0  0  0  0
  2 12  1  0  0  0  0
  2 13  1  0  0  0  0
  3  4  1  0  0  0  0
  3 14  1  0  0  0  0
  3 15  1  0  0  0  0
  4  5  1  0  0  0  0
  4 16  1  0  0  0  0
  4 17  1  0  0  0  0
  5  6  2  0  0  0  0
  5  7  1  0  0  0  0
  7  8  2  0  0  0  0
  7  9  1  0  0  0  0
M  CHG  1   9  -1
M  END
$$$$
