CHEBI:15607
 OpenBabel04242412523D

 24 23  0  0  1  0  0  0  0  0999 V2000
    3.5637   -3.0785   -2.5532 C   0  0  0  0  0  0  0  0  0  0  0  0
    3.4653   -2.9271   -1.0335 C   0  0  2  0  0  0  0  0  0  0  0  0
    4.6901   -3.4382   -0.4690 O   0  0  0  0  0  0  0  0  0  0  0  0
    2.2533   -3.7599   -0.5732 C   0  0  0  0  0  0  0  0  0  0  0  0
    1.0777   -3.4545   -0.6529 O   0  0  0  0  0  0  0  0  0  0  0  0
    2.6282   -4.9695   -0.0971 O   0  0  0  0  0  0  0  0  0  0  0  0
    3.3028   -1.4615   -0.5851 C   0  0  2  0  0  0  0  0  0  0  0  0
    4.4686   -0.5524   -0.9895 C   0  0  0  0  0  0  0  0  0  0  0  0
    4.1922    0.8854   -0.6499 C   0  0  0  0  0  0  0  0  0  0  0  0
    4.8181    1.5675    0.1413 O   0  0  0  0  0  0  0  0  0  0  0  0
    3.1712    1.3974   -1.3595 O   0  0  0  0  0  0  0  0  0  0  0  0
    3.1398   -1.3849    0.9227 C   0  0  0  0  0  0  0  0  0  0  0  0
    2.2766   -0.7145    1.4689 O   0  0  0  0  0  0  0  0  0  0  0  0
    4.0645   -2.0766    1.6240 O   0  0  0  0  0  0  0  0  0  0  0  0
    3.5633   -4.1379   -2.8372 H   0  0  0  0  0  0  0  0  0  0  0  0
    4.4987   -2.6628   -2.9421 H   0  0  0  0  0  0  0  0  0  0  0  0
    2.7208   -2.5983   -3.0612 H   0  0  0  0  0  0  0  0  0  0  0  0
    4.6254   -4.4156   -0.5524 H   0  0  0  0  0  0  0  0  0  0  0  0
    1.7814   -5.3924    0.1700 H   0  0  0  0  0  0  0  0  0  0  0  0
    2.3684   -1.0734   -1.0140 H   0  0  0  0  0  0  0  0  0  0  0  0
    5.3978   -0.8411   -0.4842 H   0  0  0  0  0  0  0  0  0  0  0  0
    4.6654   -0.5946   -2.0657 H   0  0  0  0  0  0  0  0  0  0  0  0
    3.0824    2.3150   -1.0222 H   0  0  0  0  0  0  0  0  0  0  0  0
    4.6919   -2.5783    1.0494 H   0  0  0  0  0  0  0  0  0  0  0  0
  1 15  1  0  0  0  0
  1 16  1  0  0  0  0
  1 17  1  0  0  0  0
  2  4  1  1  0  0  0
  2  3  1  0  0  0  0
  2  1  1  0  0  0  0
  3 18  1  0  0  0  0
  4  5  2  0  0  0  0
  4  6  1  0  0  0  0
  6 19  1  0  0  0  0
  7 12  1  0  0  0  0
  7  8  1  0  0  0  0
  7  2  1  0  0  0  0
  7 20  1  6  0  0  0
  8  9  1  0  0  0  0
  8 21  1  0  0  0  0
  8 22  1  0  0  0  0
  9 10  2  0  0  0  0
  9 11  1  0  0  0  0
 11 23  1  0  0  0  0
 12 13  2  0  0  0  0
 12 14  1  0  0  0  0
 14 24  1  0  0  0  0
M  END
$$$$
