CHEBI:17270
 OpenBabel04242416083D

 19 18  0  0  0  0  0  0  0  0999 V2000
    3.7447    2.7122    3.6565 O   0  0  0  0  0  0  0  0  0  0  0  0
    4.0166    3.0180    2.2244 P   0  0  0  0  0  0  0  0  0  0  0  0
    3.3228    2.0244    1.1865 O   0  0  0  0  0  0  0  0  0  0  0  0
    3.4663    4.4323    1.7339 O   0  0  0  0  0  0  0  0  0  0  0  0
    5.5511    3.0365    1.7645 O   0  0  0  0  0  0  0  0  0  0  0  0
    6.4360    2.0782    2.3526 C   0  0  0  0  0  0  0  0  0  0  0  0
    6.1290    0.6654    1.8453 C   0  0  0  0  0  0  0  0  0  0  0  0
    4.8257    0.2410    2.2662 O   0  0  0  0  0  0  0  0  0  0  0  0
    7.8583    2.4899    1.9733 C   0  0  0  0  0  0  0  0  0  0  0  0
    8.1508    3.7764    2.5152 O   0  0  0  0  0  0  0  0  0  0  0  0
    3.5940    1.1027    1.4066 H   0  0  0  0  0  0  0  0  0  0  0  0
    2.5362    4.5502    1.9943 H   0  0  0  0  0  0  0  0  0  0  0  0
    6.3135    2.1362    3.4402 H   0  0  0  0  0  0  0  0  0  0  0  0
    6.8582   -0.0622    2.2151 H   0  0  0  0  0  0  0  0  0  0  0  0
    6.1306    0.6402    0.7509 H   0  0  0  0  0  0  0  0  0  0  0  0
    4.8547    0.1464    3.2412 H   0  0  0  0  0  0  0  0  0  0  0  0
    7.9775    2.5562    0.8866 H   0  0  0  0  0  0  0  0  0  0  0  0
    8.5946    1.7828    2.3668 H   0  0  0  0  0  0  0  0  0  0  0  0
    7.4335    4.3669    2.2135 H   0  0  0  0  0  0  0  0  0  0  0  0
  1  2  2  0  0  0  0
  2  3  1  0  0  0  0
  2  4  1  0  0  0  0
  2  5  1  0  0  0  0
  3 11  1  0  0  0  0
  4 12  1  0  0  0  0
  5  6  1  0  0  0  0
  6  7  1  0  0  0  0
  6  9  1  0  0  0  0
  6 13  1  0  0  0  0
  7  8  1  0  0  0  0
  7 14  1  0  0  0  0
  7 15  1  0  0  0  0
  8 16  1  0  0  0  0
  9 10  1  0  0  0  0
  9 17  1  0  0  0  0
  9 18  1  0  0  0  0
 10 19  1  0  0  0  0
M  END
$$$$
