CHEBI:17284
 OpenBabel04242416123D

 26 26  0  0  1  0  0  0  0  0999 V2000
    0.4522    1.0497   -0.3713 N   0  0  0  0  0  0  0  0  0  0  0  0
    1.1163   -0.0500    0.3053 C   0  0  0  0  0  0  0  0  0  0  0  0
    2.4986    0.2798    0.4441 O   0  0  0  0  0  0  0  0  0  0  0  0
    2.8849    0.0605    1.8191 C   0  0  2  0  0  0  0  0  0  0  0  0
    4.2787   -0.5692    1.8671 C   0  0  0  0  0  0  0  0  0  0  0  0
    4.8206   -0.6022    3.1770 O   0  0  0  0  0  0  0  0  0  0  0  0
    4.5309   -1.8812    4.0942 P   0  0  0  0  0  0  0  0  0  0  0  0
    3.9399   -3.0810    3.4407 O   0  0  0  0  0  0  0  0  0  0  0  0
    5.9126   -2.1057    4.8586 O   0  0  0  0  0  0  0  0  0  0  0  0
    3.6521   -1.2874    5.2865 O   0  0  0  0  0  0  0  0  0  0  0  0
    1.7817   -0.7947    2.4466 C   0  0  1  0  0  0  0  0  0  0  0  0
    1.6629   -0.5928    3.8578 O   0  0  0  0  0  0  0  0  0  0  0  0
    0.5547   -0.2922    1.7134 C   0  0  1  0  0  0  0  0  0  0  0  0
    0.1255    0.9333    2.3421 O   0  0  0  0  0  0  0  0  0  0  0  0
    0.7769    1.0380   -1.3396 H   0  0  0  0  0  0  0  0  0  0  0  0
    0.8764    1.9024    0.0011 H   0  0  0  0  0  0  0  0  0  0  0  0
    1.0528   -0.9682   -0.2890 H   0  0  0  0  0  0  0  0  0  0  0  0
    2.9274    1.0379    2.3172 H   0  0  0  0  0  0  0  0  0  0  0  0
    4.9598    0.0300    1.2517 H   0  0  0  0  0  0  0  0  0  0  0  0
    4.2815   -1.5666    1.4126 H   0  0  0  0  0  0  0  0  0  0  0  0
    6.0607   -1.3821    5.4918 H   0  0  0  0  0  0  0  0  0  0  0  0
    2.7357   -1.1212    4.9554 H   0  0  0  0  0  0  0  0  0  0  0  0
    1.9337   -1.8585    2.2379 H   0  0  0  0  0  0  0  0  0  0  0  0
    1.0492    0.1767    3.9354 H   0  0  0  0  0  0  0  0  0  0  0  0
   -0.2919   -0.9841    1.7342 H   0  0  0  0  0  0  0  0  0  0  0  0
   -0.4149    1.3748    1.6535 H   0  0  0  0  0  0  0  0  0  0  0  0
  1  2  1  0  0  0  0
  1 15  1  0  0  0  0
  1 16  1  0  0  0  0
  2  3  1  0  0  0  0
  2 13  1  0  0  0  0
  2 17  1  0  0  0  0
  3  4  1  0  0  0  0
  4  5  1  0  0  0  0
  4 11  1  0  0  0  0
  4 18  1  1  0  0  0
  5  6  1  0  0  0  0
  5 19  1  0  0  0  0
  5 20  1  0  0  0  0
  6  7  1  0  0  0  0
  7  8  2  0  0  0  0
  7  9  1  0  0  0  0
  7 10  1  0  0  0  0
  9 21  1  0  0  0  0
 10 22  1  0  0  0  0
 11 13  1  0  0  0  0
 11 12  1  0  0  0  0
 11 23  1  6  0  0  0
 12 24  1  0  0  0  0
 13 14  1  0  0  0  0
 13 25  1  6  0  0  0
 14 26  1  0  0  0  0
M  END
$$$$
