CHEBI:16985
 OpenBabel04242415393D

 49 52  0  0  1  0  0  0  0  0999 V2000
    1.0666    0.0265   -0.2428 C   0  0  0  0  0  0  0  0  0  0  0  0
    2.6076   -0.1787   -0.2497 C   0  0  2  0  0  0  0  0  0  0  0  0
    3.1017    0.3049   -1.6569 C   0  0  0  0  0  0  0  0  0  0  0  0
    4.3472    1.1845   -1.6277 C   0  0  0  0  0  0  0  0  0  0  0  0
    4.1191    2.3843   -0.7307 C   0  0  0  0  0  0  0  0  0  0  0  0
    4.5862    3.4890   -1.0058 O   0  0  0  0  0  0  0  0  0  0  0  0
    3.3205    2.1598    0.5386 C   0  0  0  0  0  0  0  0  0  0  0  0
    3.3182    0.6649    0.8587 C   0  0  1  0  0  0  0  0  0  0  0  0
    2.7956    0.3425    2.2566 C   0  0  0  0  0  0  0  0  0  0  0  0
    3.0193   -1.1374    2.5733 C   0  0  0  0  0  0  0  0  0  0  0  0
    2.4916   -2.1037    1.4868 C   0  0  2  0  0  0  0  0  0  0  0  0
    2.9683   -1.6826    0.0628 C   0  0  2  0  0  0  0  0  0  0  0  0
    2.4319   -2.6946   -0.9610 C   0  0  0  0  0  0  0  0  0  0  0  0
    2.9889   -4.0849   -0.6820 C   0  0  0  0  0  0  0  0  0  0  0  0
    2.6551   -4.6070    0.7131 C   0  0  2  0  0  0  0  0  0  0  0  0
    3.4371   -5.9099    0.9621 C   0  0  0  0  0  0  0  0  0  0  0  0
    1.1790   -4.9358    0.8932 C   0  0  0  0  0  0  0  0  0  0  0  0
    0.4656   -5.4282    0.0288 O   0  0  0  0  0  0  0  0  0  0  0  0
    0.6892   -4.6012    2.2799 C   0  0  0  0  0  0  0  0  0  0  0  0
    1.9577   -4.1111    2.9767 C   0  0  0  0  0  0  0  0  0  0  0  0
    2.8670   -3.5749    1.8496 C   0  0  1  0  0  0  0  0  0  0  0  0
    0.8018    1.0772   -0.4034 H   0  0  0  0  0  0  0  0  0  0  0  0
    0.5891   -0.2727    0.6926 H   0  0  0  0  0  0  0  0  0  0  0  0
    0.5899   -0.5464   -1.0457 H   0  0  0  0  0  0  0  0  0  0  0  0
    2.3096    0.8973   -2.1372 H   0  0  0  0  0  0  0  0  0  0  0  0
    3.2864   -0.5282   -2.3375 H   0  0  0  0  0  0  0  0  0  0  0  0
    4.5649    1.5418   -2.6402 H   0  0  0  0  0  0  0  0  0  0  0  0
    5.2183    0.6267   -1.2698 H   0  0  0  0  0  0  0  0  0  0  0  0
    2.3119    2.5580    0.4004 H   0  0  0  0  0  0  0  0  0  0  0  0
    3.8103    2.7172    1.3447 H   0  0  0  0  0  0  0  0  0  0  0  0
    4.3781    0.3628    0.8734 H   0  0  0  0  0  0  0  0  0  0  0  0
    1.7368    0.6017    2.3587 H   0  0  0  0  0  0  0  0  0  0  0  0
    3.3305    0.9437    3.0024 H   0  0  0  0  0  0  0  0  0  0  0  0
    2.5535   -1.3543    3.5405 H   0  0  0  0  0  0  0  0  0  0  0  0
    4.0966   -1.3029    2.7062 H   0  0  0  0  0  0  0  0  0  0  0  0
    1.3976   -2.0361    1.5025 H   0  0  0  0  0  0  0  0  0  0  0  0
    4.0662   -1.7580    0.0431 H   0  0  0  0  0  0  0  0  0  0  0  0
    2.7263   -2.4291   -1.9792 H   0  0  0  0  0  0  0  0  0  0  0  0
    1.3371   -2.7238   -0.9469 H   0  0  0  0  0  0  0  0  0  0  0  0
    4.0801   -4.0514   -0.8062 H   0  0  0  0  0  0  0  0  0  0  0  0
    2.6141   -4.7743   -1.4488 H   0  0  0  0  0  0  0  0  0  0  0  0
    3.2534   -6.6328    0.1582 H   0  0  0  0  0  0  0  0  0  0  0  0
    3.1456   -6.4040    1.8950 H   0  0  0  0  0  0  0  0  0  0  0  0
    4.5149   -5.7199    1.0049 H   0  0  0  0  0  0  0  0  0  0  0  0
    0.2793   -5.4874    2.7697 H   0  0  0  0  0  0  0  0  0  0  0  0
   -0.0651   -3.8127    2.2141 H   0  0  0  0  0  0  0  0  0  0  0  0
    2.4477   -4.9489    3.4871 H   0  0  0  0  0  0  0  0  0  0  0  0
    1.7224   -3.3735    3.7483 H   0  0  0  0  0  0  0  0  0  0  0  0
    3.9147   -3.5934    2.1762 H   0  0  0  0  0  0  0  0  0  0  0  0
  1 22  1  0  0  0  0
  1 23  1  0  0  0  0
  1 24  1  0  0  0  0
  2  3  1  0  0  0  0
  2  8  1  0  0  0  0
  2 12  1  0  0  0  0
  2  1  1  6  0  0  0
  3  4  1  0  0  0  0
  3 25  1  0  0  0  0
  3 26  1  0  0  0  0
  4  5  1  0  0  0  0
  4 27  1  0  0  0  0
  4 28  1  0  0  0  0
  5  7  1  0  0  0  0
  5  6  2  0  0  0  0
  7  8  1  0  0  0  0
  7 29  1  0  0  0  0
  7 30  1  0  0  0  0
  8  9  1  0  0  0  0
  8 31  1  6  0  0  0
  9 10  1  0  0  0  0
  9 32  1  0  0  0  0
  9 33  1  0  0  0  0
 10 11  1  0  0  0  0
 10 34  1  0  0  0  0
 10 35  1  0  0  0  0
 11 12  1  0  0  0  0
 11 21  1  0  0  0  0
 11 36  1  6  0  0  0
 12 13  1  0  0  0  0
 12 37  1  1  0  0  0
 13 14  1  0  0  0  0
 13 38  1  0  0  0  0
 13 39  1  0  0  0  0
 14 15  1  0  0  0  0
 14 40  1  0  0  0  0
 14 41  1  0  0  0  0
 15 17  1  0  0  0  0
 15 21  1  0  0  0  0
 15 16  1  1  0  0  0
 16 42  1  0  0  0  0
 16 43  1  0  0  0  0
 16 44  1  0  0  0  0
 17 19  1  0  0  0  0
 17 18  2  0  0  0  0
 19 20  1  0  0  0  0
 19 45  1  0  0  0  0
 19 46  1  0  0  0  0
 20 21  1  0  0  0  0
 20 47  1  0  0  0  0
 20 48  1  0  0  0  0
 21 49  1  6  0  0  0
M  END
$$$$
