CHEBI:15614
 OpenBabel04242412533D

 19 18  0  0  1  0  0  0  0  0999 V2000
    3.4317   -2.4316    2.6511 C   0  0  0  0  0  0  0  0  0  0  0  0
    2.4286   -1.7938    1.6978 C   0  0  0  0  0  0  0  0  0  0  0  0
    2.8281   -0.3677    1.2913 C   0  0  2  0  0  0  0  0  0  0  0  0
    1.7223    0.2905    0.4706 C   0  0  0  0  0  0  0  0  0  0  0  0
    4.1011   -0.3667    0.4684 C   0  0  0  0  0  0  0  0  0  0  0  0
    4.4292   -1.2235   -0.3498 O   0  0  0  0  0  0  0  0  0  0  0  0
    5.0456    0.8231    0.6382 C   0  0  0  0  0  0  0  0  0  0  0  0
    4.8324    1.7530    1.3875 O   0  0  0  0  0  0  0  0  0  0  0  0
    6.1266    0.6752   -0.1521 O   0  0  0  0  0  0  0  0  0  0  0  0
    3.0831   -3.4235    2.9557 H   0  0  0  0  0  0  0  0  0  0  0  0
    3.5565   -1.8244    3.5533 H   0  0  0  0  0  0  0  0  0  0  0  0
    4.4120   -2.5527    2.1801 H   0  0  0  0  0  0  0  0  0  0  0  0
    1.4503   -1.7694    2.1935 H   0  0  0  0  0  0  0  0  0  0  0  0
    2.3213   -2.4324    0.8126 H   0  0  0  0  0  0  0  0  0  0  0  0
    2.9935    0.2165    2.2039 H   0  0  0  0  0  0  0  0  0  0  0  0
    1.5022   -0.2863   -0.4349 H   0  0  0  0  0  0  0  0  0  0  0  0
    2.0124    1.2985    0.1549 H   0  0  0  0  0  0  0  0  0  0  0  0
    0.7995    0.3721    1.0544 H   0  0  0  0  0  0  0  0  0  0  0  0
    6.0397   -0.1672   -0.6595 H   0  0  0  0  0  0  0  0  0  0  0  0
  1  2  1  0  0  0  0
  1 10  1  0  0  0  0
  1 11  1  0  0  0  0
  1 12  1  0  0  0  0
  2 13  1  0  0  0  0
  2 14  1  0  0  0  0
  3  5  1  0  0  0  0
  3  4  1  0  0  0  0
  3  2  1  0  0  0  0
  3 15  1  1  0  0  0
  4 16  1  0  0  0  0
  4 17  1  0  0  0  0
  4 18  1  0  0  0  0
  5  6  2  0  0  0  0
  5  7  1  0  0  0  0
  7  8  2  0  0  0  0
  7  9  1  0  0  0  0
  9 19  1  0  0  0  0
M  END
$$$$
