CHEBI:9671
 OpenBabel04242411403D

 30 32  0  0  0  0  0  0  0  0999 V2000
    1.2099   -0.0458    0.1567 N   0  0  0  0  0  0  0  0  0  0  0  0
    2.5866   -0.0220    0.1023 C   0  0  0  0  0  0  0  0  0  0  0  0
    3.2126   -1.1790   -0.0835 N   0  0  0  0  0  0  0  0  0  0  0  0
    4.5519   -1.1316   -0.1348 C   0  0  0  0  0  0  0  0  0  0  0  0
    5.1867   -2.3591   -0.3878 N   0  0  0  0  0  0  0  0  0  0  0  0
    5.2944    0.0397   -0.0266 C   0  0  0  0  0  0  0  0  0  0  0  0
    6.6574    0.0749   -0.0640 N   0  0  0  0  0  0  0  0  0  0  0  0
    7.2435    1.2910    0.0713 C   0  0  0  0  0  0  0  0  0  0  0  0
    8.7165    1.2664    0.0427 C   0  0  0  0  0  0  0  0  0  0  0  0
    9.4648    2.0948   -0.8120 C   0  0  0  0  0  0  0  0  0  0  0  0
   10.8628    2.0485   -0.8223 C   0  0  0  0  0  0  0  0  0  0  0  0
   11.5389    1.1576    0.0071 C   0  0  0  0  0  0  0  0  0  0  0  0
   10.8196    0.3085    0.8425 C   0  0  0  0  0  0  0  0  0  0  0  0
    9.4235    0.3625    0.8574 C   0  0  0  0  0  0  0  0  0  0  0  0
    6.4575    2.4398    0.2520 C   0  0  0  0  0  0  0  0  0  0  0  0
    6.9712    3.7085    0.5139 N   0  0  0  0  0  0  0  0  0  0  0  0
    5.1089    2.3749    0.2843 N   0  0  0  0  0  0  0  0  0  0  0  0
    4.5143    1.1847    0.1504 C   0  0  0  0  0  0  0  0  0  0  0  0
    3.1860    1.1582    0.2032 N   0  0  0  0  0  0  0  0  0  0  0  0
    0.8510   -0.8562   -0.3284 H   0  0  0  0  0  0  0  0  0  0  0  0
    0.8316    0.8558   -0.1001 H   0  0  0  0  0  0  0  0  0  0  0  0
    4.5133   -3.1123   -0.2972 H   0  0  0  0  0  0  0  0  0  0  0  0
    6.0236   -2.4678    0.1777 H   0  0  0  0  0  0  0  0  0  0  0  0
    8.9664    2.7724   -1.5006 H   0  0  0  0  0  0  0  0  0  0  0  0
   11.4236    2.7010   -1.4870 H   0  0  0  0  0  0  0  0  0  0  0  0
   12.6249    1.1168   -0.0055 H   0  0  0  0  0  0  0  0  0  0  0  0
   11.3412   -0.4000    1.4808 H   0  0  0  0  0  0  0  0  0  0  0  0
    8.8778   -0.3144    1.5129 H   0  0  0  0  0  0  0  0  0  0  0  0
    7.6768    4.0083   -0.1451 H   0  0  0  0  0  0  0  0  0  0  0  0
    6.1880    4.3559    0.5663 H   0  0  0  0  0  0  0  0  0  0  0  0
  1  2  1  0  0  0  0
  1 20  1  0  0  0  0
  1 21  1  0  0  0  0
  2  3  1  0  0  0  0
  2 19  2  0  0  0  0
  3  4  2  0  0  0  0
  4  5  1  0  0  0  0
  4  6  1  0  0  0  0
  5 22  1  0  0  0  0
  5 23  1  0  0  0  0
  6  7  1  0  0  0  0
  6 18  2  0  0  0  0
  7  8  2  0  0  0  0
  8  9  1  0  0  0  0
  8 15  1  0  0  0  0
  9 10  1  0  0  0  0
  9 14  2  0  0  0  0
 10 11  2  0  0  0  0
 10 24  1  0  0  0  0
 11 12  1  0  0  0  0
 11 25  1  0  0  0  0
 12 13  2  0  0  0  0
 12 26  1  0  0  0  0
 13 14  1  0  0  0  0
 13 27  1  0  0  0  0
 14 28  1  0  0  0  0
 15 16  1  0  0  0  0
 15 17  2  0  0  0  0
 16 29  1  0  0  0  0
 16 30  1  0  0  0  0
 17 18  1  0  0  0  0
 18 19  1  0  0  0  0
M  END
$$$$
