CHEBI:17228
 OpenBabel04242416033D

 19 18  0  0  0  0  0  0  0  0999 V2000
    6.7928   -1.5154    1.5362 N   0  0  0  0  0  0  0  0  0  0  0  0
    5.7343   -1.9735    2.1061 C   0  0  0  0  0  0  0  0  0  0  0  0
    5.5701   -2.0318    3.4378 N   0  0  0  0  0  0  0  0  0  0  0  0
    4.6693   -2.4706    1.4399 N   0  0  0  0  0  0  0  0  0  0  0  0
    4.6283   -2.5921   -0.0099 C   0  0  0  0  0  0  0  0  0  0  0  0
    5.1175   -3.9258   -0.5337 C   0  0  0  0  0  0  0  0  0  0  0  0
    6.8596   -4.2386   -0.3412 S   0  0  0  0  0  0  0  0  0  0  0  0
    7.1392   -4.5916    1.0330 O   0  0  0  0  0  0  0  0  0  0  0  0
    7.2809   -5.0897   -1.4335 O   0  0  0  0  0  0  0  0  0  0  0  0
    7.4394   -2.7563   -0.6130 O   0  0  0  0  0  0  0  0  0  0  0  0
    7.4431   -1.2141    2.2730 H   0  0  0  0  0  0  0  0  0  0  0  0
    6.2406   -1.5195    3.9962 H   0  0  0  0  0  0  0  0  0  0  0  0
    4.6220   -1.8612    3.7504 H   0  0  0  0  0  0  0  0  0  0  0  0
    4.1619   -3.1893    1.9455 H   0  0  0  0  0  0  0  0  0  0  0  0
    5.1418   -1.7517   -0.4902 H   0  0  0  0  0  0  0  0  0  0  0  0
    3.5759   -2.4891   -0.3015 H   0  0  0  0  0  0  0  0  0  0  0  0
    4.9200   -3.9759   -1.6106 H   0  0  0  0  0  0  0  0  0  0  0  0
    4.5923   -4.7598   -0.0566 H   0  0  0  0  0  0  0  0  0  0  0  0
    7.3445   -2.2186    0.2278 H   0  0  0  0  0  0  0  0  0  0  0  0
  1  2  2  0  0  0  0
  1 11  1  0  0  0  0
  2  3  1  0  0  0  0
  2  4  1  0  0  0  0
  3 12  1  0  0  0  0
  3 13  1  0  0  0  0
  4  5  1  0  0  0  0
  4 14  1  0  0  0  0
  5  6  1  0  0  0  0
  5 15  1  0  0  0  0
  5 16  1  0  0  0  0
  6  7  1  0  0  0  0
  6 17  1  0  0  0  0
  6 18  1  0  0  0  0
  7  8  2  0  0  0  0
  7  9  2  0  0  0  0
  7 10  1  0  0  0  0
 10 19  1  0  0  0  0
M  END
$$$$
