CHEBI:15413
 OpenBabel04242411503D

 32 33  0  0  0  0  0  0  0  0999 V2000
    3.1309    0.5547   -0.2222 O   0  0  0  0  0  0  0  0  0  0  0  0
    2.2481   -0.2800   -0.4249 C   0  0  0  0  0  0  0  0  0  0  0  0
    2.5696   -1.6662   -0.8540 C   0  0  0  0  0  0  0  0  0  0  0  0
    3.8326   -2.1121   -0.7693 C   0  0  0  0  0  0  0  0  0  0  0  0
    4.2649   -3.4551   -1.1813 C   0  0  0  0  0  0  0  0  0  0  0  0
    5.5691   -3.6225   -1.6696 C   0  0  0  0  0  0  0  0  0  0  0  0
    6.0357   -4.8850   -2.0487 C   0  0  0  0  0  0  0  0  0  0  0  0
    5.1972   -5.9869   -1.9285 C   0  0  0  0  0  0  0  0  0  0  0  0
    5.6089   -7.2365   -2.2847 O   0  0  0  0  0  0  0  0  0  0  0  0
    3.9080   -5.8465   -1.4321 C   0  0  0  0  0  0  0  0  0  0  0  0
    3.4440   -4.5842   -1.0528 C   0  0  0  0  0  0  0  0  0  0  0  0
    0.8276    0.1531   -0.3511 C   0  0  0  0  0  0  0  0  0  0  0  0
    0.5293    1.4974   -0.6449 C   0  0  0  0  0  0  0  0  0  0  0  0
    1.4893    2.4247   -0.9655 O   0  0  0  0  0  0  0  0  0  0  0  0
   -0.7825    1.9700   -0.6240 C   0  0  0  0  0  0  0  0  0  0  0  0
   -1.8082    1.1004   -0.2792 C   0  0  0  0  0  0  0  0  0  0  0  0
   -3.1070    1.5133   -0.2392 O   0  0  0  0  0  0  0  0  0  0  0  0
   -1.5421   -0.2240    0.0519 C   0  0  0  0  0  0  0  0  0  0  0  0
   -0.2258   -0.6948    0.0239 C   0  0  0  0  0  0  0  0  0  0  0  0
    0.0118   -1.9878    0.4048 O   0  0  0  0  0  0  0  0  0  0  0  0
    1.7695   -2.2753   -1.2536 H   0  0  0  0  0  0  0  0  0  0  0  0
    4.6162   -1.4575   -0.3908 H   0  0  0  0  0  0  0  0  0  0  0  0
    6.2331   -2.7658   -1.7662 H   0  0  0  0  0  0  0  0  0  0  0  0
    7.0470   -4.9839   -2.4293 H   0  0  0  0  0  0  0  0  0  0  0  0
    6.5236   -7.1809   -2.6062 H   0  0  0  0  0  0  0  0  0  0  0  0
    3.2662   -6.7172   -1.3331 H   0  0  0  0  0  0  0  0  0  0  0  0
    2.4398   -4.5010   -0.6453 H   0  0  0  0  0  0  0  0  0  0  0  0
    2.3678    2.0355   -0.7485 H   0  0  0  0  0  0  0  0  0  0  0  0
   -0.9754    3.0099   -0.8680 H   0  0  0  0  0  0  0  0  0  0  0  0
   -3.1432    2.4537   -0.4856 H   0  0  0  0  0  0  0  0  0  0  0  0
   -2.3697   -0.8685    0.3330 H   0  0  0  0  0  0  0  0  0  0  0  0
   -0.8136   -2.3812    0.7387 H   0  0  0  0  0  0  0  0  0  0  0  0
  1  2  2  0  0  0  0
  2  3  1  0  0  0  0
  2 12  1  0  0  0  0
  3  4  2  0  0  0  0
  3 21  1  0  0  0  0
  4  5  1  0  0  0  0
  4 22  1  0  0  0  0
  5  6  1  0  0  0  0
  5 11  2  0  0  0  0
  6  7  2  0  0  0  0
  6 23  1  0  0  0  0
  7  8  1  0  0  0  0
  7 24  1  0  0  0  0
  8  9  1  0  0  0  0
  8 10  2  0  0  0  0
  9 25  1  0  0  0  0
 10 11  1  0  0  0  0
 10 26  1  0  0  0  0
 11 27  1  0  0  0  0
 12 13  1  0  0  0  0
 12 19  2  0  0  0  0
 13 14  1  0  0  0  0
 13 15  2  0  0  0  0
 14 28  1  0  0  0  0
 15 16  1  0  0  0  0
 15 29  1  0  0  0  0
 16 17  1  0  0  0  0
 16 18  2  0  0  0  0
 17 30  1  0  0  0  0
 18 19  1  0  0  0  0
 18 31  1  0  0  0  0
 19 20  1  0  0  0  0
 20 32  1  0  0  0  0
M  END
$$$$
