CHEBI:17756
 OpenBabel04242417143D

 18 18  0  0  1  0  0  0  0  0999 V2000
    1.6715   -1.4338    1.1586 O   0  0  0  0  0  0  0  0  0  0  0  0
    2.6001   -2.1114    0.6063 C   0  0  0  0  0  0  0  0  0  0  0  0
    2.9282   -3.3184    0.7849 O   0  5  0  0  0  0  0  0  0  0  0  0
    3.3378   -1.3275   -0.5329 C   0  0  1  0  0  0  0  0  0  0  0  0
    2.5937   -0.1059   -0.8045 O   0  0  0  0  0  0  0  0  0  0  0  0
    4.7885   -1.0146   -0.2184 C   0  0  0  0  0  0  0  0  0  0  0  0
    5.7066   -2.0605   -0.0300 C   0  0  0  0  0  0  0  0  0  0  0  0
    7.0535   -1.8004    0.2343 C   0  0  0  0  0  0  0  0  0  0  0  0
    7.5088   -0.4864    0.3065 C   0  0  0  0  0  0  0  0  0  0  0  0
    6.6156    0.5655    0.1179 C   0  0  0  0  0  0  0  0  0  0  0  0
    5.2677    0.3026   -0.1423 C   0  0  0  0  0  0  0  0  0  0  0  0
    3.2918   -1.9197   -1.4540 H   0  0  0  0  0  0  0  0  0  0  0  0
    1.8893   -0.1572   -0.1106 H   0  0  0  0  0  0  0  0  0  0  0  0
    5.3613   -3.0933   -0.0738 H   0  0  0  0  0  0  0  0  0  0  0  0
    7.7384   -2.6285    0.3891 H   0  0  0  0  0  0  0  0  0  0  0  0
    8.5544   -0.2833    0.5140 H   0  0  0  0  0  0  0  0  0  0  0  0
    6.9605    1.5933    0.1744 H   0  0  0  0  0  0  0  0  0  0  0  0
    4.5835    1.1356   -0.2879 H   0  0  0  0  0  0  0  0  0  0  0  0
  1  2  2  0  0  0  0
  2  3  1  0  0  0  0
  2  4  1  0  0  0  0
  4  5  1  0  0  0  0
  4  6  1  0  0  0  0
  4 12  1  6  0  0  0
  5 13  1  0  0  0  0
  6  7  1  0  0  0  0
  6 11  2  0  0  0  0
  7  8  2  0  0  0  0
  7 14  1  0  0  0  0
  8  9  1  0  0  0  0
  8 15  1  0  0  0  0
  9 10  2  0  0  0  0
  9 16  1  0  0  0  0
 10 11  1  0  0  0  0
 10 17  1  0  0  0  0
 11 18  1  0  0  0  0
M  CHG  1   3  -1
M  END
$$$$
