CHEBI:15749
 OpenBabel04242413113D

 19 18  0  0  0  0  0  0  0  0999 V2000
    2.1192   -0.1400    0.3974 O   0  0  0  0  0  0  0  0  0  0  0  0
    2.5584    0.9457    0.0607 C   0  0  0  0  0  0  0  0  0  0  0  0
    1.8488    1.8261   -0.6581 O   0  0  0  0  0  0  0  0  0  0  0  0
    3.8825    1.4964    0.3784 C   0  0  0  0  0  0  0  0  0  0  0  0
    4.9427    0.7694    0.7634 C   0  0  0  0  0  0  0  0  0  0  0  0
    5.0288   -0.6748    0.8992 C   0  0  0  0  0  0  0  0  0  0  0  0
    4.5591   -1.3939    1.9338 C   0  0  0  0  0  0  0  0  0  0  0  0
    3.9366   -0.7908    3.1134 C   0  0  0  0  0  0  0  0  0  0  0  0
    4.5274   -0.6485    4.1695 O   0  0  0  0  0  0  0  0  0  0  0  0
    2.6373   -0.5021    2.9264 O   0  0  0  0  0  0  0  0  0  0  0  0
    5.7376   -1.4747   -0.1384 C   0  0  0  0  0  0  0  0  0  0  0  0
    5.7981   -2.6895   -0.2050 O   0  0  0  0  0  0  0  0  0  0  0  0
    6.3538   -0.7004   -1.0497 O   0  0  0  0  0  0  0  0  0  0  0  0
    0.9862    1.3921   -0.8245 H   0  0  0  0  0  0  0  0  0  0  0  0
    3.9842    2.5699    0.2530 H   0  0  0  0  0  0  0  0  0  0  0  0
    5.8902    1.2872    0.9128 H   0  0  0  0  0  0  0  0  0  0  0  0
    4.7007   -2.4673    2.0104 H   0  0  0  0  0  0  0  0  0  0  0  0
    2.3263   -0.6573    2.0023 H   0  0  0  0  0  0  0  0  0  0  0  0
    6.7807   -1.3429   -1.6545 H   0  0  0  0  0  0  0  0  0  0  0  0
  1  2  2  0  0  0  0
  2  3  1  0  0  0  0
  2  4  1  0  0  0  0
  3 14  1  0  0  0  0
  4  5  2  0  0  0  0
  4 15  1  0  0  0  0
  5  6  1  0  0  0  0
  5 16  1  0  0  0  0
  6  7  2  0  0  0  0
  6 11  1  0  0  0  0
  7  8  1  0  0  0  0
  7 17  1  0  0  0  0
  8  9  2  0  0  0  0
  8 10  1  0  0  0  0
 10 18  1  0  0  0  0
 11 12  2  0  0  0  0
 11 13  1  0  0  0  0
 13 19  1  0  0  0  0
M  END
$$$$
