CHEBI:15929
 OpenBabel04242413293D

 36 36  0  0  1  0  0  0  0  0999 V2000
    3.0692   -3.3144   -3.4323 C   0  0  0  0  0  0  0  0  0  0  0  0
    4.4070   -2.5877   -3.4335 C   0  0  0  0  0  0  0  0  0  0  0  0
    4.5031   -1.5731   -2.3284 C   0  0  0  0  0  0  0  0  0  0  0  0
    5.5871   -0.8314   -2.0461 C   0  0  0  0  0  0  0  0  0  0  0  0
    6.9050   -0.8726   -2.7665 C   0  0  0  0  0  0  0  0  0  0  0  0
    7.2835    0.4525   -3.4347 C   0  0  1  0  0  0  0  0  0  0  0  0
    8.6247    0.3014   -4.1304 C   0  0  0  0  0  0  0  0  0  0  0  0
    9.6276   -0.1580   -3.5975 O   0  0  0  0  0  0  0  0  0  0  0  0
    8.5844    0.7544   -5.5620 C   0  0  0  0  0  0  0  0  0  0  0  0
    7.3171    1.5908   -5.5788 C   0  0  0  0  0  0  0  0  0  0  0  0
    6.3633    0.8852   -4.6012 C   0  0  2  0  0  0  0  0  0  0  0  0
    5.2260    1.8136   -4.1535 C   0  0  0  0  0  0  0  0  0  0  0  0
    4.3096    2.2083   -5.2903 C   0  0  0  0  0  0  0  0  0  0  0  0
    4.2031    1.6097   -6.3514 O   0  0  0  0  0  0  0  0  0  0  0  0
    3.6111    3.3258   -4.9441 O   0  0  0  0  0  0  0  0  0  0  0  0
    2.7249    3.8044   -5.9573 C   0  0  0  0  0  0  0  0  0  0  0  0
    3.0365   -4.0457   -4.2463 H   0  0  0  0  0  0  0  0  0  0  0  0
    2.2388   -2.6143   -3.5730 H   0  0  0  0  0  0  0  0  0  0  0  0
    2.9102   -3.8494   -2.4900 H   0  0  0  0  0  0  0  0  0  0  0  0
    4.5338   -2.0887   -4.4008 H   0  0  0  0  0  0  0  0  0  0  0  0
    5.2050   -3.3309   -3.3239 H   0  0  0  0  0  0  0  0  0  0  0  0
    3.6197   -1.4358   -1.7057 H   0  0  0  0  0  0  0  0  0  0  0  0
    5.5298   -0.1421   -1.2042 H   0  0  0  0  0  0  0  0  0  0  0  0
    6.9300   -1.6787   -3.5096 H   0  0  0  0  0  0  0  0  0  0  0  0
    7.6737   -1.1361   -2.0280 H   0  0  0  0  0  0  0  0  0  0  0  0
    7.3832    1.2590   -2.6977 H   0  0  0  0  0  0  0  0  0  0  0  0
    8.4974   -0.1221   -6.2104 H   0  0  0  0  0  0  0  0  0  0  0  0
    9.4663    1.3440   -5.8202 H   0  0  0  0  0  0  0  0  0  0  0  0
    6.9036    1.6622   -6.5895 H   0  0  0  0  0  0  0  0  0  0  0  0
    7.5395    2.6093   -5.2358 H   0  0  0  0  0  0  0  0  0  0  0  0
    5.9480   -0.0018   -5.0987 H   0  0  0  0  0  0  0  0  0  0  0  0
    5.6494    2.7256   -3.7154 H   0  0  0  0  0  0  0  0  0  0  0  0
    4.6025    1.3314   -3.3957 H   0  0  0  0  0  0  0  0  0  0  0  0
    3.3008    4.2558   -6.7708 H   0  0  0  0  0  0  0  0  0  0  0  0
    2.0881    4.5743   -5.5128 H   0  0  0  0  0  0  0  0  0  0  0  0
    2.0819    3.0032   -6.3351 H   0  0  0  0  0  0  0  0  0  0  0  0
  1  2  1  0  0  0  0
  1 17  1  0  0  0  0
  1 18  1  0  0  0  0
  1 19  1  0  0  0  0
  2  3  1  0  0  0  0
  2 20  1  0  0  0  0
  2 21  1  0  0  0  0
  3  4  2  0  0  0  0
  3 22  1  0  0  0  0
  4  5  1  0  0  0  0
  4 23  1  0  0  0  0
  5 24  1  0  0  0  0
  5 25  1  0  0  0  0
  6  7  1  0  0  0  0
  6 11  1  0  0  0  0
  6  5  1  0  0  0  0
  6 26  1  1  0  0  0
  7  8  2  0  0  0  0
  7  9  1  0  0  0  0
  9 10  1  0  0  0  0
  9 27  1  0  0  0  0
  9 28  1  0  0  0  0
 10 11  1  0  0  0  0
 10 29  1  0  0  0  0
 10 30  1  0  0  0  0
 11 12  1  0  0  0  0
 11 31  1  6  0  0  0
 12 13  1  0  0  0  0
 12 32  1  0  0  0  0
 12 33  1  0  0  0  0
 13 14  2  0  0  0  0
 13 15  1  0  0  0  0
 15 16  1  0  0  0  0
 16 34  1  0  0  0  0
 16 35  1  0  0  0  0
 16 36  1  0  0  0  0
M  END
$$$$
