CHEBI:15743
 OpenBabel04242413113D

 13 12  0  0  0  0  0  0  0  0999 V2000
    0.8651   -0.4387   -0.3093 C   0  0  0  0  0  0  0  0  0  0  0  0
    2.3028   -0.0505   -0.0058 C   0  0  0  0  0  0  0  0  0  0  0  0
    2.3973    1.3775    0.5184 C   0  0  0  0  0  0  0  0  0  0  0  0
    3.8164    1.7898    0.8273 C   0  0  0  0  0  0  0  0  0  0  0  0
    4.7995    1.0701    0.6887 O   0  0  0  0  0  0  0  0  0  0  0  0
    0.8205   -1.4669   -0.6820 H   0  0  0  0  0  0  0  0  0  0  0  0
    0.4341    0.2179   -1.0719 H   0  0  0  0  0  0  0  0  0  0  0  0
    0.2436   -0.3760    0.5897 H   0  0  0  0  0  0  0  0  0  0  0  0
    2.9061   -0.1560   -0.9154 H   0  0  0  0  0  0  0  0  0  0  0  0
    2.7182   -0.7481    0.7313 H   0  0  0  0  0  0  0  0  0  0  0  0
    1.8148    1.4868    1.4396 H   0  0  0  0  0  0  0  0  0  0  0  0
    2.0030    2.0833   -0.2207 H   0  0  0  0  0  0  0  0  0  0  0  0
    3.9287    2.8213    1.2038 H   0  0  0  0  0  0  0  0  0  0  0  0
  1  2  1  0  0  0  0
  1  6  1  0  0  0  0
  1  7  1  0  0  0  0
  1  8  1  0  0  0  0
  2  3  1  0  0  0  0
  2  9  1  0  0  0  0
  2 10  1  0  0  0  0
  3  4  1  0  0  0  0
  3 11  1  0  0  0  0
  3 12  1  0  0  0  0
  4  5  2  0  0  0  0
  4 13  1  0  0  0  0
M  END
$$$$
