CHEBI:17236
 OpenBabel04242416043D

 16 15  0  0  0  0  0  0  0  0999 V2000
    9.7848   -1.0223   -0.8317 O   0  0  0  0  0  0  0  0  0  0  0  0
    8.5887   -1.0626   -1.0896 C   0  0  0  0  0  0  0  0  0  0  0  0
    7.5448   -0.5013   -0.2005 C   0  0  0  0  0  0  0  0  0  0  0  0
    7.8936    0.0874    0.9529 C   0  0  0  0  0  0  0  0  0  0  0  0
    6.9180    0.6502    1.8636 C   0  0  0  0  0  0  0  0  0  0  0  0
    7.1631    1.2723    3.0314 C   0  0  0  0  0  0  0  0  0  0  0  0
    8.4186    1.4959    3.5749 O   0  0  0  0  0  0  0  0  0  0  0  0
    5.9897    1.7706    3.8215 C   0  0  0  0  0  0  0  0  0  0  0  0
    4.8192    1.6696    3.5003 O   0  0  0  0  0  0  0  0  0  0  0  0
    6.4216    2.3580    4.9609 O   0  0  0  0  0  0  0  0  0  0  0  0
    8.2038   -1.5255   -2.0134 H   0  0  0  0  0  0  0  0  0  0  0  0
    6.5195   -0.5971   -0.5364 H   0  0  0  0  0  0  0  0  0  0  0  0
    8.9485    0.1370    1.2101 H   0  0  0  0  0  0  0  0  0  0  0  0
    5.8753    0.5461    1.5543 H   0  0  0  0  0  0  0  0  0  0  0  0
    9.0885    1.1462    2.9624 H   0  0  0  0  0  0  0  0  0  0  0  0
    7.4028    2.3139    4.9932 H   0  0  0  0  0  0  0  0  0  0  0  0
  1  2  2  0  0  0  0
  2  3  1  0  0  0  0
  2 11  1  0  0  0  0
  3  4  2  0  0  0  0
  3 12  1  0  0  0  0
  4  5  1  0  0  0  0
  4 13  1  0  0  0  0
  5  6  2  0  0  0  0
  5 14  1  0  0  0  0
  6  7  1  0  0  0  0
  6  8  1  0  0  0  0
  7 15  1  0  0  0  0
  8  9  2  0  0  0  0
  8 10  1  0  0  0  0
 10 16  1  0  0  0  0
M  END
$$$$
