CHEBI:15350
 OpenBabel04242411443D

 13 12  0  0  0  0  0  0  0  0999 V2000
    1.2082   -1.8392    0.4572 C   0  0  0  0  0  0  0  0  0  0  0  0
    2.7002   -1.9385    0.4849 C   0  0  0  0  0  0  0  0  0  0  0  0
    3.3393   -2.9404    0.1934 O   0  0  0  0  0  0  0  0  0  0  0  0
    3.2736   -0.7759    0.8378 O   0  0  0  0  0  0  0  0  0  0  0  0
    5.0036   -0.7759    0.8378 P   0  0  0  0  0  0  0  0  0  0  0  0
    5.0643    0.7173    1.1529 O   0  0  0  0  0  0  0  0  0  0  0  0
    5.0550   -1.5632    2.2669 O   0  0  0  0  0  0  0  0  0  0  0  0
    6.7336   -0.7759    0.8378 O   0  0  0  0  0  0  0  0  0  0  0  0
    0.8707   -0.9392    0.9795 H   0  0  0  0  0  0  0  0  0  0  0  0
    0.7799   -2.7052    0.9682 H   0  0  0  0  0  0  0  0  0  0  0  0
    0.8663   -1.8002   -0.5797 H   0  0  0  0  0  0  0  0  0  0  0  0
    5.1206   -2.5273    2.1304 H   0  0  0  0  0  0  0  0  0  0  0  0
    6.9332   -0.0158    1.4244 H   0  0  0  0  0  0  0  0  0  0  0  0
  1  2  1  0  0  0  0
  1  9  1  0  0  0  0
  1 10  1  0  0  0  0
  1 11  1  0  0  0  0
  2  3  2  0  0  0  0
  2  4  1  0  0  0  0
  4  5  1  0  0  0  0
  5  6  2  0  0  0  0
  5  7  1  0  0  0  0
  5  8  1  0  0  0  0
  7 12  1  0  0  0  0
  8 13  1  0  0  0  0
M  END
$$$$
