CHEBI:18386
 OpenBabel04252409313D

 20 21  0  0  0  0  0  0  0  0999 V2000
    2.8478    1.5287   -0.3814 O   0  0  0  0  0  0  0  0  0  0  0  0
    2.7185    0.3965    0.0474 C   0  0  0  0  0  0  0  0  0  0  0  0
    1.9570   -0.5641   -0.5321 O   0  0  0  0  0  0  0  0  0  0  0  0
    3.3703   -0.1352    1.2795 C   0  0  0  0  0  0  0  0  0  0  0  0
    4.2002    0.6745    2.0343 C   0  0  0  0  0  0  0  0  0  0  0  0
    4.7772    0.1191    3.1693 C   0  0  0  0  0  0  0  0  0  0  0  0
    4.5076   -1.2148    3.5091 C   0  0  0  0  0  0  0  0  0  0  0  0
    5.0737   -1.8091    4.6495 C   0  0  0  0  0  0  0  0  0  0  0  0
    4.7905   -3.1359    4.9663 C   0  0  0  0  0  0  0  0  0  0  0  0
    3.9426   -3.8726    4.1474 C   0  0  0  0  0  0  0  0  0  0  0  0
    3.3802   -3.2800    3.0127 C   0  0  0  0  0  0  0  0  0  0  0  0
    3.6446   -1.9603    2.6722 C   0  0  0  0  0  0  0  0  0  0  0  0
    3.0785   -1.4377    1.5699 N   0  0  0  0  0  0  0  0  0  0  0  0
    2.0242   -1.3851    0.0121 H   0  0  0  0  0  0  0  0  0  0  0  0
    4.3920    1.7037    1.7487 H   0  0  0  0  0  0  0  0  0  0  0  0
    5.4351    0.7280    3.7853 H   0  0  0  0  0  0  0  0  0  0  0  0
    5.7385   -1.2417    5.2974 H   0  0  0  0  0  0  0  0  0  0  0  0
    5.2303   -3.5927    5.8496 H   0  0  0  0  0  0  0  0  0  0  0  0
    3.7158   -4.9087    4.3869 H   0  0  0  0  0  0  0  0  0  0  0  0
    2.7187   -3.8685    2.3812 H   0  0  0  0  0  0  0  0  0  0  0  0
  1  2  2  0  0  0  0
  2  3  1  0  0  0  0
  2  4  1  0  0  0  0
  3 14  1  0  0  0  0
  4  5  1  0  0  0  0
  4 13  2  0  0  0  0
  5  6  2  0  0  0  0
  5 15  1  0  0  0  0
  6  7  1  0  0  0  0
  6 16  1  0  0  0  0
  7  8  1  0  0  0  0
  7 12  2  0  0  0  0
  8  9  2  0  0  0  0
  8 17  1  0  0  0  0
  9 10  1  0  0  0  0
  9 18  1  0  0  0  0
 10 11  2  0  0  0  0
 10 19  1  0  0  0  0
 11 12  1  0  0  0  0
 11 20  1  0  0  0  0
 12 13  1  0  0  0  0
M  END
$$$$
