CHEBI:15953
 OpenBabel04242413333D

 16 16  0  0  0  0  0  0  0  0999 V2000
    1.2455   -0.4795    0.8248 N   0  0  0  0  0  0  0  0  0  0  0  0
    2.4554   -0.2911    0.3753 C   0  0  0  0  0  0  0  0  0  0  0  0
    3.0294    1.1106    0.3178 C   0  0  0  0  0  0  0  0  0  0  0  0
    2.3397    2.0471    0.6955 O   0  0  0  0  0  0  0  0  0  0  0  0
    4.3999    1.2826   -0.1930 C   0  0  0  0  0  0  0  0  0  0  0  0
    5.0838    0.2032   -0.5866 C   0  0  0  0  0  0  0  0  0  0  0  0
    4.5355   -1.1322   -0.5334 C   0  0  0  0  0  0  0  0  0  0  0  0
    3.2988   -1.4134   -0.0866 C   0  0  0  0  0  0  0  0  0  0  0  0
    2.8441   -2.8234   -0.0786 C   0  0  0  0  0  0  0  0  0  0  0  0
    3.5383   -3.7539   -0.4614 O   0  0  0  0  0  0  0  0  0  0  0  0
    1.5902   -2.9997    0.3897 O   0  0  0  0  0  0  0  0  0  0  0  0
    0.8681    0.4565    1.0828 H   0  0  0  0  0  0  0  0  0  0  0  0
    4.8006    2.2874   -0.2287 H   0  0  0  0  0  0  0  0  0  0  0  0
    6.0980    0.3090   -0.9669 H   0  0  0  0  0  0  0  0  0  0  0  0
    5.1891   -1.9322   -0.8830 H   0  0  0  0  0  0  0  0  0  0  0  0
    1.1483   -2.1525    0.6636 H   0  0  0  0  0  0  0  0  0  0  0  0
  1  2  2  0  0  0  0
  1 12  1  0  0  0  0
  2  3  1  0  0  0  0
  2  8  1  0  0  0  0
  3  4  2  0  0  0  0
  3  5  1  0  0  0  0
  5  6  2  0  0  0  0
  5 13  1  0  0  0  0
  6  7  1  0  0  0  0
  6 14  1  0  0  0  0
  7  8  2  0  0  0  0
  7 15  1  0  0  0  0
  8  9  1  0  0  0  0
  9 10  2  0  0  0  0
  9 11  1  0  0  0  0
 11 16  1  0  0  0  0
M  END
$$$$
