CHEBI:16463
 OpenBabel04242414283D

 19 18  0  0  0  0  0  0  0  0999 V2000
    3.8251    2.6034   -1.3975 C   0  0  0  0  0  0  0  0  0  0  0  0
    3.0916    1.3619   -1.6543 N   0  0  0  0  0  0  0  0  0  0  0  0
    3.4663    0.3343   -0.6577 C   0  0  0  0  0  0  0  0  0  0  0  0
    2.7959   -1.0204   -0.9374 C   0  0  0  0  0  0  0  0  0  0  0  0
    1.3930   -0.9780   -0.7282 O   0  0  0  0  0  0  0  0  0  0  0  0
    0.4939   -0.2632   -1.8439 P   0  0  0  0  0  0  0  0  0  0  0  0
    0.8781   -0.4698   -3.2684 O   0  0  0  0  0  0  0  0  0  0  0  0
   -0.9879   -0.7390   -1.4879 O   0  0  0  0  0  0  0  0  0  0  0  0
    0.4531    1.2614   -1.3729 O   0  0  0  0  0  0  0  0  0  0  0  0
    3.5400    3.3510   -2.1440 H   0  0  0  0  0  0  0  0  0  0  0  0
    4.9071    2.4522   -1.4656 H   0  0  0  0  0  0  0  0  0  0  0  0
    3.5774    3.0087   -0.4113 H   0  0  0  0  0  0  0  0  0  0  0  0
    3.3620    1.0218   -2.5859 H   0  0  0  0  0  0  0  0  0  0  0  0
    3.1647    0.6803    0.3377 H   0  0  0  0  0  0  0  0  0  0  0  0
    4.5531    0.1911   -0.6660 H   0  0  0  0  0  0  0  0  0  0  0  0
    3.1998   -1.7646   -0.2429 H   0  0  0  0  0  0  0  0  0  0  0  0
    3.0156   -1.3748   -1.9505 H   0  0  0  0  0  0  0  0  0  0  0  0
   -1.6238   -0.3735   -2.1261 H   0  0  0  0  0  0  0  0  0  0  0  0
    1.3656    1.6247   -1.4783 H   0  0  0  0  0  0  0  0  0  0  0  0
  1  2  1  0  0  0  0
  1 10  1  0  0  0  0
  1 11  1  0  0  0  0
  1 12  1  0  0  0  0
  2  3  1  0  0  0  0
  2 13  1  0  0  0  0
  3  4  1  0  0  0  0
  3 14  1  0  0  0  0
  3 15  1  0  0  0  0
  4  5  1  0  0  0  0
  4 16  1  0  0  0  0
  4 17  1  0  0  0  0
  5  6  1  0  0  0  0
  6  7  2  0  0  0  0
  6  8  1  0  0  0  0
  6  9  1  0  0  0  0
  8 18  1  0  0  0  0
  9 19  1  0  0  0  0
M  END
$$$$
