CHEBI:18262
 OpenBabel04252409173D

 37 36  0  0  0  0  0  0  0  0999 V2000
    9.0507    2.8371    0.2847 C   0  0  0  0  0  0  0  0  0  0  0  0
    7.7410    3.5285   -0.0656 C   0  0  0  0  0  0  0  0  0  0  0  0
    6.5938    2.5303   -0.2125 C   0  0  0  0  0  0  0  0  0  0  0  0
    5.1990    3.1492   -0.1925 C   0  0  0  0  0  0  0  0  0  0  0  0
    4.8129    4.0057    1.0176 C   0  0  0  0  0  0  0  0  0  0  0  0
    4.4885    3.3217    2.3553 C   0  0  0  0  0  0  0  0  0  0  0  0
    5.6518    2.8841    3.2522 C   0  0  0  0  0  0  0  0  0  0  0  0
    6.2728    1.4782    3.1645 C   0  0  0  0  0  0  0  0  0  0  0  0
    5.3492    0.2520    3.1604 C   0  0  0  0  0  0  0  0  0  0  0  0
    4.5591   -0.0306    1.8757 C   0  0  0  0  0  0  0  0  0  0  0  0
    5.2588   -0.9559    0.8807 C   0  0  0  0  0  0  0  0  0  0  0  0
    4.9275   -0.6323   -0.5838 C   0  0  0  0  0  0  0  0  0  0  0  0
    3.7390   -0.2890   -0.8231 O   0  0  0  0  0  0  0  0  0  0  0  0
    5.9007   -0.7693   -1.3834 O   0  5  0  0  0  0  0  0  0  0  0  0
    9.8827    3.5444    0.2093 H   0  0  0  0  0  0  0  0  0  0  0  0
    9.2534    1.9936   -0.3815 H   0  0  0  0  0  0  0  0  0  0  0  0
    9.0248    2.4641    1.3142 H   0  0  0  0  0  0  0  0  0  0  0  0
    7.8585    4.0731   -1.0094 H   0  0  0  0  0  0  0  0  0  0  0  0
    7.5380    4.2699    0.7111 H   0  0  0  0  0  0  0  0  0  0  0  0
    6.6532    1.7514    0.5384 H   0  0  0  0  0  0  0  0  0  0  0  0
    6.7225    2.0011   -1.1655 H   0  0  0  0  0  0  0  0  0  0  0  0
    4.4531    2.3582   -0.3228 H   0  0  0  0  0  0  0  0  0  0  0  0
    5.1112    3.7796   -1.0871 H   0  0  0  0  0  0  0  0  0  0  0  0
    3.8880    4.5220    0.7200 H   0  0  0  0  0  0  0  0  0  0  0  0
    5.5377    4.8094    1.1771 H   0  0  0  0  0  0  0  0  0  0  0  0
    3.7252    2.5511    2.2455 H   0  0  0  0  0  0  0  0  0  0  0  0
    3.9697    4.1025    2.9338 H   0  0  0  0  0  0  0  0  0  0  0  0
    5.2889    2.9820    4.2858 H   0  0  0  0  0  0  0  0  0  0  0  0
    6.4601    3.6222    3.1673 H   0  0  0  0  0  0  0  0  0  0  0  0
    6.8919    1.3852    4.0701 H   0  0  0  0  0  0  0  0  0  0  0  0
    7.0043    1.4129    2.3623 H   0  0  0  0  0  0  0  0  0  0  0  0
    4.6469    0.3553    3.9954 H   0  0  0  0  0  0  0  0  0  0  0  0
    5.9629   -0.6296    3.3903 H   0  0  0  0  0  0  0  0  0  0  0  0
    4.2815    0.8924    1.3788 H   0  0  0  0  0  0  0  0  0  0  0  0
    3.6155   -0.5103    2.1669 H   0  0  0  0  0  0  0  0  0  0  0  0
    4.9342   -1.9891    1.0566 H   0  0  0  0  0  0  0  0  0  0  0  0
    6.3452   -0.9268    1.0151 H   0  0  0  0  0  0  0  0  0  0  0  0
  1  2  1  0  0  0  0
  1 15  1  0  0  0  0
  1 16  1  0  0  0  0
  1 17  1  0  0  0  0
  2  3  1  0  0  0  0
  2 18  1  0  0  0  0
  2 19  1  0  0  0  0
  3  4  1  0  0  0  0
  3 20  1  0  0  0  0
  3 21  1  0  0  0  0
  4  5  1  0  0  0  0
  4 22  1  0  0  0  0
  4 23  1  0  0  0  0
  5  6  1  0  0  0  0
  5 24  1  0  0  0  0
  5 25  1  0  0  0  0
  6  7  1  0  0  0  0
  6 26  1  0  0  0  0
  6 27  1  0  0  0  0
  7  8  1  0  0  0  0
  7 28  1  0  0  0  0
  7 29  1  0  0  0  0
  8  9  1  0  0  0  0
  8 30  1  0  0  0  0
  8 31  1  0  0  0  0
  9 10  1  0  0  0  0
  9 32  1  0  0  0  0
  9 33  1  0  0  0  0
 10 11  1  0  0  0  0
 10 34  1  0  0  0  0
 10 35  1  0  0  0  0
 11 12  1  0  0  0  0
 11 36  1  0  0  0  0
 11 37  1  0  0  0  0
 12 13  2  0  0  0  0
 12 14  1  0  0  0  0
M  CHG  1  14  -1
M  END
$$$$
