CHEBI:15753
 OpenBabel04242413123D

 19 18  0  0  0  0  0  0  0  0999 V2000
    1.8252   -2.5563    0.3199 O   0  0  0  0  0  0  0  0  0  0  0  0
    1.5567   -1.6595    1.1018 C   0  0  0  0  0  0  0  0  0  0  0  0
    0.2901   -1.3993    1.4984 O   0  0  0  0  0  0  0  0  0  0  0  0
    2.5608   -0.7298    1.7426 C   0  0  0  0  0  0  0  0  0  0  0  0
    4.0078   -0.9932    1.3111 C   0  0  0  0  0  0  0  0  0  0  0  0
    4.6014   -2.3215    1.7920 C   0  0  0  0  0  0  0  0  0  0  0  0
    4.7882   -2.3940    3.2870 C   0  0  0  0  0  0  0  0  0  0  0  0
    4.5139   -1.5109    4.0959 O   0  0  0  0  0  0  0  0  0  0  0  0
    5.3649   -3.6948    3.8432 C   0  0  0  0  0  0  0  0  0  0  0  0
    5.7122   -4.6263    3.1479 O   0  0  0  0  0  0  0  0  0  0  0  0
    5.4244   -3.6435    5.1876 O   0  0  0  0  0  0  0  0  0  0  0  0
    0.2148   -0.6524    2.1226 H   0  0  0  0  0  0  0  0  0  0  0  0
    2.4572   -0.8040    2.8288 H   0  0  0  0  0  0  0  0  0  0  0  0
    2.2950    0.2904    1.4409 H   0  0  0  0  0  0  0  0  0  0  0  0
    4.6318   -0.1690    1.6789 H   0  0  0  0  0  0  0  0  0  0  0  0
    4.0652   -0.9663    0.2157 H   0  0  0  0  0  0  0  0  0  0  0  0
    5.5913   -2.4409    1.3361 H   0  0  0  0  0  0  0  0  0  0  0  0
    3.9808   -3.1657    1.4793 H   0  0  0  0  0  0  0  0  0  0  0  0
    5.0920   -2.7669    5.4937 H   0  0  0  0  0  0  0  0  0  0  0  0
  1  2  2  0  0  0  0
  2  3  1  0  0  0  0
  2  4  1  0  0  0  0
  3 12  1  0  0  0  0
  4  5  1  0  0  0  0
  4 13  1  0  0  0  0
  4 14  1  0  0  0  0
  5  6  1  0  0  0  0
  5 15  1  0  0  0  0
  5 16  1  0  0  0  0
  6  7  1  0  0  0  0
  6 17  1  0  0  0  0
  6 18  1  0  0  0  0
  7  8  2  0  0  0  0
  7  9  1  0  0  0  0
  9 10  2  0  0  0  0
  9 11  1  0  0  0  0
 11 19  1  0  0  0  0
M  END
$$$$
