CHEBI:15418
 OpenBabel04242411503D

 51 54  0  0  1  0  0  0  0  0999 V2000
    0.5448    0.0185    0.8744 C   0  0  0  0  0  0  0  0  0  0  0  0
    1.8489   -0.2770    0.8194 C   0  0  0  0  0  0  0  0  0  0  0  0
    2.7791    0.1445   -0.2957 C   0  0  0  0  0  0  0  0  0  0  0  0
    4.0137   -0.7493   -0.0340 C   0  0  1  0  0  0  0  0  0  0  0  0
    5.2956   -0.1688   -0.6260 C   0  0  0  0  0  0  0  0  0  0  0  0
    6.4294   -1.1714   -0.4964 C   0  0  0  0  0  0  0  0  0  0  0  0
    6.2199   -2.4676   -1.3204 C   0  0  1  0  0  0  0  0  0  0  0  0
    4.7051   -2.7507   -1.6552 C   0  0  1  0  0  0  0  0  0  0  0  0
    4.5051   -4.2872   -1.8125 C   0  0  0  0  0  0  0  0  0  0  0  0
    4.2527   -2.0980   -3.0027 C   0  0  0  0  0  0  0  0  0  0  0  0
    5.3352   -1.8327   -4.0374 C   0  0  0  0  0  0  0  0  0  0  0  0
    6.5215   -2.7657   -3.9157 C   0  0  0  0  0  0  0  0  0  0  0  0
    7.2171   -2.6489   -2.5428 C   0  0  2  0  0  0  0  0  0  0  0  0
    8.0592   -3.9307   -2.3372 C   0  0  0  0  0  0  0  0  0  0  0  0
    8.2559   -1.5215   -2.6459 C   0  0  0  0  0  0  0  0  0  0  0  0
    8.1246   -0.5065   -3.3233 O   0  0  0  0  0  0  0  0  0  0  0  0
    3.7117   -2.2236   -0.5327 C   0  0  2  0  0  0  0  0  0  0  0  0
    3.4824   -3.1688    0.6705 C   0  0  0  0  0  0  0  0  0  0  0  0
    2.4808   -2.5813    1.6861 C   0  0  0  0  0  0  0  0  0  0  0  0
    2.6215   -1.0616    1.8663 C   0  0  0  0  0  0  0  0  0  0  0  0
    4.0494   -0.6640    1.5176 C   0  0  0  0  0  0  0  0  0  0  0  0
    0.0654    0.5930    0.0878 H   0  0  0  0  0  0  0  0  0  0  0  0
   -0.0723   -0.3060    1.7061 H   0  0  0  0  0  0  0  0  0  0  0  0
    3.0324    1.2058   -0.1820 H   0  0  0  0  0  0  0  0  0  0  0  0
    2.3436   -0.0071   -1.2877 H   0  0  0  0  0  0  0  0  0  0  0  0
    5.5723    0.7507   -0.0944 H   0  0  0  0  0  0  0  0  0  0  0  0
    5.1649    0.1262   -1.6713 H   0  0  0  0  0  0  0  0  0  0  0  0
    6.5244   -1.4617    0.5587 H   0  0  0  0  0  0  0  0  0  0  0  0
    7.3741   -0.6655   -0.6995 H   0  0  0  0  0  0  0  0  0  0  0  0
    6.5019   -3.2520   -0.6005 H   0  0  0  0  0  0  0  0  0  0  0  0
    5.0200   -4.6994   -2.6811 H   0  0  0  0  0  0  0  0  0  0  0  0
    3.4439   -4.5341   -1.9359 H   0  0  0  0  0  0  0  0  0  0  0  0
    4.8779   -4.8343   -0.9397 H   0  0  0  0  0  0  0  0  0  0  0  0
    3.7368   -1.1466   -2.8322 H   0  0  0  0  0  0  0  0  0  0  0  0
    3.4837   -2.7325   -3.4654 H   0  0  0  0  0  0  0  0  0  0  0  0
    5.6682   -0.7927   -3.9480 H   0  0  0  0  0  0  0  0  0  0  0  0
    4.9015   -1.9190   -5.0412 H   0  0  0  0  0  0  0  0  0  0  0  0
    7.2296   -2.5395   -4.7246 H   0  0  0  0  0  0  0  0  0  0  0  0
    6.1951   -3.7921   -4.1132 H   0  0  0  0  0  0  0  0  0  0  0  0
    7.4299   -4.8252   -2.2937 H   0  0  0  0  0  0  0  0  0  0  0  0
    8.6358   -3.8819   -1.4056 H   0  0  0  0  0  0  0  0  0  0  0  0
    8.7793   -4.0665   -3.1535 H   0  0  0  0  0  0  0  0  0  0  0  0
    9.1427   -1.6275   -1.9952 H   0  0  0  0  0  0  0  0  0  0  0  0
    2.7270   -2.2120   -1.0270 H   0  0  0  0  0  0  0  0  0  0  0  0
    4.4385   -3.3756    1.1668 H   0  0  0  0  0  0  0  0  0  0  0  0
    3.0870   -4.1381    0.3486 H   0  0  0  0  0  0  0  0  0  0  0  0
    2.6487   -3.0772    2.6502 H   0  0  0  0  0  0  0  0  0  0  0  0
    1.4572   -2.8368    1.3848 H   0  0  0  0  0  0  0  0  0  0  0  0
    2.3440   -0.7570    2.8806 H   0  0  0  0  0  0  0  0  0  0  0  0
    4.7975   -1.3101    1.9876 H   0  0  0  0  0  0  0  0  0  0  0  0
    4.2598    0.3609    1.8549 H   0  0  0  0  0  0  0  0  0  0  0  0
  1  2  2  0  0  0  0
  1 22  1  0  0  0  0
  1 23  1  0  0  0  0
  2  3  1  0  0  0  0
  2 20  1  0  0  0  0
  3 24  1  0  0  0  0
  3 25  1  0  0  0  0
  4  3  1  1  0  0  0
  4  5  1  0  0  0  0
  4 17  1  0  0  0  0
  4 21  1  0  0  0  0
  5  6  1  0  0  0  0
  5 26  1  0  0  0  0
  5 27  1  0  0  0  0
  6  7  1  0  0  0  0
  6 28  1  0  0  0  0
  6 29  1  0  0  0  0
  7  8  1  0  0  0  0
  7 13  1  0  0  0  0
  7 30  1  1  0  0  0
  8 10  1  0  0  0  0
  8 17  1  0  0  0  0
  8  9  1  1  0  0  0
  9 31  1  0  0  0  0
  9 32  1  0  0  0  0
  9 33  1  0  0  0  0
 10 11  1  0  0  0  0
 10 34  1  0  0  0  0
 10 35  1  0  0  0  0
 11 12  1  0  0  0  0
 11 36  1  0  0  0  0
 11 37  1  0  0  0  0
 12 13  1  0  0  0  0
 12 38  1  0  0  0  0
 12 39  1  0  0  0  0
 13 14  1  0  0  0  0
 13 15  1  6  0  0  0
 14 40  1  0  0  0  0
 14 41  1  0  0  0  0
 14 42  1  0  0  0  0
 15 16  2  0  0  0  0
 15 43  1  0  0  0  0
 17 18  1  0  0  0  0
 17 44  1  1  0  0  0
 18 19  1  0  0  0  0
 18 45  1  0  0  0  0
 18 46  1  0  0  0  0
 19 20  1  0  0  0  0
 19 47  1  0  0  0  0
 19 48  1  0  0  0  0
 20 21  1  0  0  0  0
 20 49  1  0  0  0  0
 21 50  1  0  0  0  0
 21 51  1  0  0  0  0
M  END
$$$$
