CHEBI:17969
 OpenBabel04242423203D

 38 37  0  0  1  0  0  0  0  0999 V2000
    7.8675   -4.4519   -3.4459 O   0  0  0  0  0  0  0  0  0  0  0  0
    8.4909   -3.3905   -3.3660 C   0  0  0  0  0  0  0  0  0  0  0  0
    9.7670   -3.1792   -4.1590 C   0  0  0  0  0  0  0  0  0  0  0  0
    9.8244   -1.8956   -4.7400 O   0  0  0  0  0  0  0  0  0  0  0  0
   10.9822   -1.6375   -5.8160 P   0  0  0  0  0  0  0  0  0  0  0  0
   11.1561   -0.2322   -6.2708 O   0  0  0  0  0  0  0  0  0  0  0  0
   12.3043   -2.2731   -5.1918 O   0  0  0  0  0  0  0  0  0  0  0  0
   10.6526   -2.6366   -7.0134 O   0  0  0  0  0  0  0  0  0  0  0  0
    8.0845   -2.2859   -2.3841 C   0  0  1  0  0  0  0  0  0  0  0  0
    7.7552   -2.8888   -1.1341 O   0  0  0  0  0  0  0  0  0  0  0  0
    6.8876   -1.4962   -2.9343 C   0  0  2  0  0  0  0  0  0  0  0  0
    5.6814   -2.2825   -2.8291 O   0  0  0  0  0  0  0  0  0  0  0  0
    6.6222   -0.1433   -2.2331 C   0  0  2  0  0  0  0  0  0  0  0  0
    5.4702    0.4038   -2.9145 O   0  0  0  0  0  0  0  0  0  0  0  0
    6.3459   -0.2143   -0.7048 C   0  0  2  0  0  0  0  0  0  0  0  0
    5.1083   -0.8865   -0.4279 O   0  0  0  0  0  0  0  0  0  0  0  0
    6.2549    1.1789   -0.0628 C   0  0  0  0  0  0  0  0  0  0  0  0
    5.2467    1.9483   -0.7111 O   0  0  0  0  0  0  0  0  0  0  0  0
    4.7753    3.3130   -0.0245 P   0  0  0  0  0  0  0  0  0  0  0  0
    3.7514    4.0948   -0.7691 O   0  0  0  0  0  0  0  0  0  0  0  0
    4.3183    2.9212    1.4508 O   0  0  0  0  0  0  0  0  0  0  0  0
    6.1218    4.1299    0.2291 O   0  0  0  0  0  0  0  0  0  0  0  0
    9.8131   -3.9458   -4.9394 H   0  0  0  0  0  0  0  0  0  0  0  0
   10.6109   -3.3149   -3.4752 H   0  0  0  0  0  0  0  0  0  0  0  0
   13.0943   -2.0075   -5.6977 H   0  0  0  0  0  0  0  0  0  0  0  0
   10.1204   -2.1975   -7.7033 H   0  0  0  0  0  0  0  0  0  0  0  0
    8.9449   -1.6291   -2.2208 H   0  0  0  0  0  0  0  0  0  0  0  0
    6.9606   -3.4337   -1.3226 H   0  0  0  0  0  0  0  0  0  0  0  0
    7.0362   -1.3064   -4.0052 H   0  0  0  0  0  0  0  0  0  0  0  0
    5.0113   -1.7660   -3.3256 H   0  0  0  0  0  0  0  0  0  0  0  0
    7.4677    0.5275   -2.4213 H   0  0  0  0  0  0  0  0  0  0  0  0
    5.1058    1.1036   -2.3312 H   0  0  0  0  0  0  0  0  0  0  0  0
    7.1472   -0.7532   -0.1924 H   0  0  0  0  0  0  0  0  0  0  0  0
    4.9139   -1.4608   -1.1942 H   0  0  0  0  0  0  0  0  0  0  0  0
    7.2119    1.7021   -0.1542 H   0  0  0  0  0  0  0  0  0  0  0  0
    6.0040    1.0756    0.9983 H   0  0  0  0  0  0  0  0  0  0  0  0
    3.3917    2.6171    1.4633 H   0  0  0  0  0  0  0  0  0  0  0  0
    5.9232    5.0733    0.3697 H   0  0  0  0  0  0  0  0  0  0  0  0
  1  2  2  0  0  0  0
  2  3  1  0  0  0  0
  2  9  1  0  0  0  0
  3  4  1  0  0  0  0
  3 23  1  0  0  0  0
  3 24  1  0  0  0  0
  4  5  1  0  0  0  0
  5  6  2  0  0  0  0
  5  7  1  0  0  0  0
  5  8  1  0  0  0  0
  7 25  1  0  0  0  0
  8 26  1  0  0  0  0
  9 10  1  0  0  0  0
  9 27  1  6  0  0  0
 10 28  1  0  0  0  0
 11 12  1  0  0  0  0
 11  9  1  0  0  0  0
 11 29  1  1  0  0  0
 12 30  1  0  0  0  0
 13 14  1  0  0  0  0
 13 11  1  0  0  0  0
 13 31  1  1  0  0  0
 14 32  1  0  0  0  0
 15 17  1  0  0  0  0
 15 16  1  0  0  0  0
 15 13  1  0  0  0  0
 15 33  1  1  0  0  0
 16 34  1  0  0  0  0
 17 18  1  0  0  0  0
 17 35  1  0  0  0  0
 17 36  1  0  0  0  0
 18 19  1  0  0  0  0
 19 20  2  0  0  0  0
 19 21  1  0  0  0  0
 19 22  1  0  0  0  0
 21 37  1  0  0  0  0
 22 38  1  0  0  0  0
M  END
$$$$
