CHEBI:17404
 OpenBabel04242416303D

 18 19  0  0  0  0  0  0  0  0999 V2000
   -2.2747   -1.3349   -0.0208 O   0  0  0  0  0  0  0  0  0  0  0  0
   -1.5686   -0.3421   -0.0086 C   0  0  0  0  0  0  0  0  0  0  0  0
   -2.0414    1.0903    0.0112 C   0  0  0  0  0  0  0  0  0  0  0  0
   -0.7589    1.9393    0.0021 C   0  0  0  0  0  0  0  0  0  0  0  0
    0.3515    0.9383    0.0042 C   0  0  0  0  0  0  0  0  0  0  0  0
    1.7152    1.1840    0.0103 C   0  0  0  0  0  0  0  0  0  0  0  0
    2.5905    0.0915    0.0070 C   0  0  0  0  0  0  0  0  0  0  0  0
    2.1008   -1.2264   -0.0033 C   0  0  0  0  0  0  0  0  0  0  0  0
    0.7274   -1.4693   -0.0100 C   0  0  0  0  0  0  0  0  0  0  0  0
   -0.1132   -0.3714   -0.0059 C   0  0  0  0  0  0  0  0  0  0  0  0
   -2.6261    1.2736    0.9177 H   0  0  0  0  0  0  0  0  0  0  0  0
   -2.6528    1.2934   -0.8729 H   0  0  0  0  0  0  0  0  0  0  0  0
   -0.7117    2.5800    0.8887 H   0  0  0  0  0  0  0  0  0  0  0  0
   -0.7165    2.5662   -0.8946 H   0  0  0  0  0  0  0  0  0  0  0  0
    2.1036    2.1982    0.0174 H   0  0  0  0  0  0  0  0  0  0  0  0
    3.6652    0.2627    0.0122 H   0  0  0  0  0  0  0  0  0  0  0  0
    2.7981   -2.0611   -0.0058 H   0  0  0  0  0  0  0  0  0  0  0  0
    0.3283   -2.4783   -0.0177 H   0  0  0  0  0  0  0  0  0  0  0  0
  1  2  2  0  0  0  0
  2  3  1  0  0  0  0
  2 10  1  0  0  0  0
  3  4  1  0  0  0  0
  3 11  1  0  0  0  0
  3 12  1  0  0  0  0
  4  5  1  0  0  0  0
  4 13  1  0  0  0  0
  4 14  1  0  0  0  0
  5  6  1  0  0  0  0
  5 10  2  0  0  0  0
  6  7  2  0  0  0  0
  6 15  1  0  0  0  0
  7  8  1  0  0  0  0
  7 16  1  0  0  0  0
  8  9  2  0  0  0  0
  8 17  1  0  0  0  0
  9 10  1  0  0  0  0
  9 18  1  0  0  0  0
M  END
$$$$
