CHEBI:15899
 OpenBabel04242413263D

 32 31  0  0  1  0  0  0  0  0999 V2000
    1.1782   -2.5869   -1.7565 C   0  0  0  0  0  0  0  0  0  0  0  0
    2.4008   -2.0092   -1.0271 C   0  0  1  0  0  0  0  0  0  0  0  0
    3.4665   -1.8691   -1.9705 O   0  0  0  0  0  0  0  0  0  0  0  0
    2.0408   -0.5922   -0.5259 C   0  0  0  0  0  0  0  0  0  0  0  0
    3.2054    0.1822    0.0857 C   0  0  0  0  0  0  0  0  0  0  0  0
    2.7215    1.4373    0.5455 O   0  0  0  0  0  0  0  0  0  0  0  0
    3.8185    2.4439    1.1563 P   0  0  0  0  0  0  0  0  0  0  0  0
    4.7170    1.8507    2.1888 O   0  0  0  0  0  0  0  0  0  0  0  0
    4.5753    2.9748   -0.1522 O   0  0  0  0  0  0  0  0  0  0  0  0
    2.9480    3.6926    1.6052 O   0  0  0  0  0  0  0  0  0  0  0  0
    3.5515    5.0495    2.1403 P   0  0  0  0  0  0  0  0  0  0  0  0
    2.6233    6.2105    2.2296 O   0  0  0  0  0  0  0  0  0  0  0  0
    4.2495    4.7189    3.5316 O   0  0  0  0  0  0  0  0  0  0  0  0
    4.8117    5.3520    1.1977 O   0  0  0  0  0  0  0  0  0  0  0  0
    2.8504   -2.9079    0.1407 C   0  0  0  0  0  0  0  0  0  0  0  0
    3.1896   -4.3083   -0.2897 C   0  0  0  0  0  0  0  0  0  0  0  0
    3.6018   -4.6515   -1.3864 O   0  0  0  0  0  0  0  0  0  0  0  0
    3.0504   -5.2014    0.7073 O   0  0  0  0  0  0  0  0  0  0  0  0
    0.8674   -1.9258   -2.5741 H   0  0  0  0  0  0  0  0  0  0  0  0
    0.3302   -2.7167   -1.0762 H   0  0  0  0  0  0  0  0  0  0  0  0
    1.3980   -3.5517   -2.2246 H   0  0  0  0  0  0  0  0  0  0  0  0
    3.6760   -2.7599   -2.3204 H   0  0  0  0  0  0  0  0  0  0  0  0
    1.2171   -0.6434    0.1982 H   0  0  0  0  0  0  0  0  0  0  0  0
    1.6600    0.0076   -1.3644 H   0  0  0  0  0  0  0  0  0  0  0  0
    3.9956    0.3478   -0.6533 H   0  0  0  0  0  0  0  0  0  0  0  0
    3.6261   -0.3508    0.9423 H   0  0  0  0  0  0  0  0  0  0  0  0
    5.2196    3.6742    0.0847 H   0  0  0  0  0  0  0  0  0  0  0  0
    3.6305    4.7859    4.2823 H   0  0  0  0  0  0  0  0  0  0  0  0
    5.0352    6.3027    1.2562 H   0  0  0  0  0  0  0  0  0  0  0  0
    2.0558   -2.9548    0.8946 H   0  0  0  0  0  0  0  0  0  0  0  0
    3.7601   -2.5181    0.6096 H   0  0  0  0  0  0  0  0  0  0  0  0
    3.3454   -6.0533    0.3218 H   0  0  0  0  0  0  0  0  0  0  0  0
  1  2  1  0  0  0  0
  1 19  1  0  0  0  0
  1 20  1  0  0  0  0
  1 21  1  0  0  0  0
  2  3  1  6  0  0  0
  2  4  1  0  0  0  0
  2 15  1  0  0  0  0
  3 22  1  0  0  0  0
  4  5  1  0  0  0  0
  4 23  1  0  0  0  0
  4 24  1  0  0  0  0
  5  6  1  0  0  0  0
  5 25  1  0  0  0  0
  5 26  1  0  0  0  0
  6  7  1  0  0  0  0
  7  8  2  0  0  0  0
  7  9  1  0  0  0  0
  7 10  1  0  0  0  0
  9 27  1  0  0  0  0
 10 11  1  0  0  0  0
 11 12  2  0  0  0  0
 11 13  1  0  0  0  0
 11 14  1  0  0  0  0
 13 28  1  0  0  0  0
 14 29  1  0  0  0  0
 15 16  1  0  0  0  0
 15 30  1  0  0  0  0
 15 31  1  0  0  0  0
 16 17  2  0  0  0  0
 16 18  1  0  0  0  0
 18 32  1  0  0  0  0
M  END
$$$$
