CHEBI:17078
 OpenBabel04242415493D

 40 39  0  0  1  0  0  0  0  0999 V2000
    4.4757   -7.9001   -5.5017 N   0  0  0  0  0  0  0  0  0  0  0  0
    3.1561   -7.2898   -5.1496 C   0  0  1  0  0  0  0  0  0  0  0  0
    3.2854   -5.7977   -4.8085 C   0  0  0  0  0  0  0  0  0  0  0  0
    4.1267   -5.5186   -3.5595 C   0  0  0  0  0  0  0  0  0  0  0  0
    3.4987   -6.1173   -2.3177 C   0  0  0  0  0  0  0  0  0  0  0  0
    2.2952   -6.3191   -2.2107 O   0  0  0  0  0  0  0  0  0  0  0  0
    4.4023   -6.4360   -1.3336 N   0  0  0  0  0  0  0  0  0  0  0  0
    3.9544   -6.9231   -0.0223 C   0  0  1  0  0  0  0  0  0  0  0  0
    3.1459   -8.2343   -0.0501 C   0  0  0  0  0  0  0  0  0  0  0  0
    3.9764   -9.6080   -0.9332 S   0  0  0  0  0  0  0  0  0  0  0  0
    5.1893   -6.9241    0.9112 C   0  0  0  0  0  0  0  0  0  0  0  0
    5.8260   -5.8875    1.1075 O   0  0  0  0  0  0  0  0  0  0  0  0
    5.5916   -8.1381    1.4198 N   0  0  0  0  0  0  0  0  0  0  0  0
    6.8010   -8.2590    2.2163 C   0  0  0  0  0  0  0  0  0  0  0  0
    6.8837   -9.6234    2.8759 C   0  0  0  0  0  0  0  0  0  0  0  0
    8.1142   -9.7418    3.7201 C   0  0  0  0  0  0  0  0  0  0  0  0
    8.1445   -9.9681    4.9183 O   0  0  0  0  0  0  0  0  0  0  0  0
    9.2530   -9.6305    3.0129 O   0  0  0  0  0  0  0  0  0  0  0  0
    2.1983   -7.4982   -6.3408 C   0  0  0  0  0  0  0  0  0  0  0  0
    1.1257   -6.9405   -6.5027 O   0  0  0  0  0  0  0  0  0  0  0  0
    2.6958   -8.4235   -7.2056 O   0  0  0  0  0  0  0  0  0  0  0  0
    5.0087   -7.2204   -6.0552 H   0  0  0  0  0  0  0  0  0  0  0  0
    5.0186   -8.0180   -4.6430 H   0  0  0  0  0  0  0  0  0  0  0  0
    2.7338   -7.8639   -4.3182 H   0  0  0  0  0  0  0  0  0  0  0  0
    2.2836   -5.3701   -4.6714 H   0  0  0  0  0  0  0  0  0  0  0  0
    3.7235   -5.2602   -5.6597 H   0  0  0  0  0  0  0  0  0  0  0  0
    4.1952   -4.4359   -3.4023 H   0  0  0  0  0  0  0  0  0  0  0  0
    5.1461   -5.8979   -3.6872 H   0  0  0  0  0  0  0  0  0  0  0  0
    5.2849   -5.9316   -1.3323 H   0  0  0  0  0  0  0  0  0  0  0  0
    3.2888   -6.1498    0.3855 H   0  0  0  0  0  0  0  0  0  0  0  0
    2.1748   -8.0872   -0.5306 H   0  0  0  0  0  0  0  0  0  0  0  0
    2.9416   -8.5707    0.9722 H   0  0  0  0  0  0  0  0  0  0  0  0
    3.7973   -9.1079   -2.1652 H   0  0  0  0  0  0  0  0  0  0  0  0
    5.3127   -8.9609    0.8910 H   0  0  0  0  0  0  0  0  0  0  0  0
    6.8085   -7.4600    2.9673 H   0  0  0  0  0  0  0  0  0  0  0  0
    7.6524   -8.0851    1.5484 H   0  0  0  0  0  0  0  0  0  0  0  0
    6.8869  -10.4298    2.1336 H   0  0  0  0  0  0  0  0  0  0  0  0
    6.0087   -9.7869    3.5161 H   0  0  0  0  0  0  0  0  0  0  0  0
    9.9629   -9.7686    3.6764 H   0  0  0  0  0  0  0  0  0  0  0  0
    3.5654   -8.7032   -6.8240 H   0  0  0  0  0  0  0  0  0  0  0  0
  1  2  1  0  0  0  0
  1 22  1  0  0  0  0
  1 23  1  0  0  0  0
  2  3  1  0  0  0  0
  2 19  1  0  0  0  0
  2 24  1  1  0  0  0
  3  4  1  0  0  0  0
  3 25  1  0  0  0  0
  3 26  1  0  0  0  0
  4  5  1  0  0  0  0
  4 27  1  0  0  0  0
  4 28  1  0  0  0  0
  5  6  2  0  0  0  0
  5  7  1  0  0  0  0
  7  8  1  0  0  0  0
  7 29  1  0  0  0  0
  8  9  1  0  0  0  0
  8 11  1  0  0  0  0
  8 30  1  1  0  0  0
  9 10  1  0  0  0  0
  9 31  1  0  0  0  0
  9 32  1  0  0  0  0
 10 33  1  0  0  0  0
 11 12  2  0  0  0  0
 11 13  1  0  0  0  0
 13 14  1  0  0  0  0
 13 34  1  0  0  0  0
 14 15  1  0  0  0  0
 14 35  1  0  0  0  0
 14 36  1  0  0  0  0
 15 16  1  0  0  0  0
 15 37  1  0  0  0  0
 15 38  1  0  0  0  0
 16 17  2  0  0  0  0
 16 18  1  0  0  0  0
 18 39  1  0  0  0  0
 19 20  2  0  0  0  0
 19 21  1  0  0  0  0
 21 40  1  0  0  0  0
M  END
$$$$
