CHEBI:17328
 OpenBabel04242416173D

 43 44  0  0  1  0  0  0  0  0999 V2000
    2.4628   -3.4419   -1.2989 N   0  0  0  0  0  0  0  0  0  0  0  0
    3.8725   -3.4117   -1.7936 C   0  0  1  0  0  0  0  0  0  0  0  0
    3.9764   -3.1120   -3.2955 C   0  0  0  0  0  0  0  0  0  0  0  0
    3.4693   -1.7240   -3.7078 C   0  0  0  0  0  0  0  0  0  0  0  0
    3.6342   -1.4836   -5.2096 C   0  0  0  0  0  0  0  0  0  0  0  0
    3.1128   -0.0997   -5.5916 C   0  0  0  0  0  0  0  0  0  0  0  0
    3.2884    0.1737   -6.9992 N   0  0  0  0  0  0  0  0  0  0  0  0
    2.3796   -0.2377   -7.9519 C   0  0  0  0  0  0  0  0  0  0  0  0
    1.4095   -0.9442   -7.6816 O   0  0  0  0  0  0  0  0  0  0  0  0
    2.7143    0.1576   -9.3848 C   0  0  0  0  0  0  0  0  0  0  0  0
    2.9699    1.6244   -9.5520 C   0  0  0  0  0  0  0  0  0  0  0  0
    2.0246    2.5925   -9.8341 C   0  0  0  0  0  0  0  0  0  0  0  0
    2.6521    3.8075   -9.8881 N   0  0  0  0  0  0  0  0  0  0  0  0
    3.9963    3.6595   -9.6393 C   0  0  0  0  0  0  0  0  0  0  0  0
    5.0109    4.6216   -9.5687 C   0  0  0  0  0  0  0  0  0  0  0  0
    6.3074    4.1775   -9.2939 C   0  0  0  0  0  0  0  0  0  0  0  0
    6.5784    2.8241   -9.1117 C   0  0  0  0  0  0  0  0  0  0  0  0
    5.5539    1.8747   -9.1949 C   0  0  0  0  0  0  0  0  0  0  0  0
    4.2323    2.2977   -9.4519 C   0  0  0  0  0  0  0  0  0  0  0  0
    4.6758   -2.4076   -0.9464 C   0  0  0  0  0  0  0  0  0  0  0  0
    5.8105   -2.0250   -1.1855 O   0  0  0  0  0  0  0  0  0  0  0  0
    3.9593   -1.9978    0.1335 O   0  0  0  0  0  0  0  0  0  0  0  0
    2.0323   -4.3013   -1.6551 H   0  0  0  0  0  0  0  0  0  0  0  0
    1.9300   -2.6983   -1.7598 H   0  0  0  0  0  0  0  0  0  0  0  0
    4.3059   -4.3972   -1.5853 H   0  0  0  0  0  0  0  0  0  0  0  0
    3.4237   -3.8791   -3.8528 H   0  0  0  0  0  0  0  0  0  0  0  0
    5.0273   -3.2054   -3.5992 H   0  0  0  0  0  0  0  0  0  0  0  0
    4.0178   -0.9487   -3.1605 H   0  0  0  0  0  0  0  0  0  0  0  0
    2.4108   -1.6133   -3.4505 H   0  0  0  0  0  0  0  0  0  0  0  0
    3.0953   -2.2561   -5.7715 H   0  0  0  0  0  0  0  0  0  0  0  0
    4.6917   -1.5706   -5.4888 H   0  0  0  0  0  0  0  0  0  0  0  0
    3.6598    0.6765   -5.0455 H   0  0  0  0  0  0  0  0  0  0  0  0
    2.0501   -0.0064   -5.3417 H   0  0  0  0  0  0  0  0  0  0  0  0
    3.9889    0.8553   -7.2625 H   0  0  0  0  0  0  0  0  0  0  0  0
    1.8725   -0.1387  -10.0228 H   0  0  0  0  0  0  0  0  0  0  0  0
    3.5825   -0.4281   -9.7068 H   0  0  0  0  0  0  0  0  0  0  0  0
    0.9566    2.5182   -9.9949 H   0  0  0  0  0  0  0  0  0  0  0  0
    2.1976    4.6908  -10.0746 H   0  0  0  0  0  0  0  0  0  0  0  0
    4.8049    5.6768   -9.7162 H   0  0  0  0  0  0  0  0  0  0  0  0
    7.1168    4.9010   -9.2252 H   0  0  0  0  0  0  0  0  0  0  0  0
    7.5952    2.5003   -8.9027 H   0  0  0  0  0  0  0  0  0  0  0  0
    5.7828    0.8222   -9.0543 H   0  0  0  0  0  0  0  0  0  0  0  0
    3.0972   -2.4827    0.0771 H   0  0  0  0  0  0  0  0  0  0  0  0
  1  2  1  0  0  0  0
  1 23  1  0  0  0  0
  1 24  1  0  0  0  0
  2  3  1  0  0  0  0
  2 20  1  0  0  0  0
  2 25  1  1  0  0  0
  3  4  1  0  0  0  0
  3 26  1  0  0  0  0
  3 27  1  0  0  0  0
  4  5  1  0  0  0  0
  4 28  1  0  0  0  0
  4 29  1  0  0  0  0
  5  6  1  0  0  0  0
  5 30  1  0  0  0  0
  5 31  1  0  0  0  0
  6  7  1  0  0  0  0
  6 32  1  0  0  0  0
  6 33  1  0  0  0  0
  7  8  1  0  0  0  0
  7 34  1  0  0  0  0
  8  9  2  0  0  0  0
  8 10  1  0  0  0  0
 10 11  1  0  0  0  0
 10 35  1  0  0  0  0
 10 36  1  0  0  0  0
 11 12  2  0  0  0  0
 11 19  1  0  0  0  0
 12 13  1  0  0  0  0
 12 37  1  0  0  0  0
 13 14  1  0  0  0  0
 13 38  1  0  0  0  0
 14 15  1  0  0  0  0
 14 19  2  0  0  0  0
 15 16  2  0  0  0  0
 15 39  1  0  0  0  0
 16 17  1  0  0  0  0
 16 40  1  0  0  0  0
 17 18  2  0  0  0  0
 17 41  1  0  0  0  0
 18 19  1  0  0  0  0
 18 42  1  0  0  0  0
 20 21  2  0  0  0  0
 20 22  1  0  0  0  0
 22 43  1  0  0  0  0
M  END
$$$$
