CHEBI:18328
 OpenBabel04252409243D

 43 46  0  0  1  0  0  0  0  0999 V2000
    6.2516    1.8960   -3.5066 O   0  0  0  0  0  0  0  0  0  0  0  0
    5.7735    0.9369   -2.8999 C   0  0  0  0  0  0  0  0  0  0  0  0
    4.2684    0.7658   -2.8196 C   0  0  0  0  0  0  0  0  0  0  0  0
    3.7951    0.0345   -1.5788 C   0  0  0  0  0  0  0  0  0  0  0  0
    4.5696   -1.2638   -1.4334 C   0  0  0  0  0  0  0  0  0  0  0  0
    6.0582   -0.9395   -1.2892 C   0  0  2  0  0  0  0  0  0  0  0  0
    6.9145   -2.2074   -1.0523 C   0  0  2  0  0  0  0  0  0  0  0  0
    8.3840   -1.8077   -0.9076 C   0  0  0  0  0  0  0  0  0  0  0  0
    8.8213   -1.2046   -2.2430 C   0  0  2  0  0  0  0  0  0  0  0  0
    8.0039    0.0759   -2.4814 C   0  0  0  0  0  0  0  0  0  0  0  0
    6.5554   -0.0989   -2.3848 N   0  0  0  0  0  0  0  0  0  0  0  0
    8.7263   -2.2980   -3.3455 C   0  0  1  0  0  0  0  0  0  0  0  0
    9.1856   -1.7962   -4.7327 C   0  0  0  0  0  0  0  0  0  0  0  0
    8.7543   -2.7596   -5.8365 C   0  0  1  0  0  0  0  0  0  0  0  0
    9.3686   -4.0343   -5.6291 O   0  0  0  0  0  0  0  0  0  0  0  0
    7.2307   -2.9229   -5.8632 C   0  0  0  0  0  0  0  0  0  0  0  0
    6.5760   -2.6266   -4.5057 C   0  0  0  0  0  0  0  0  0  0  0  0
    7.4525   -3.0370   -3.4179 N   0  0  0  0  0  0  0  0  0  0  0  0
    6.8061   -3.2993   -2.1352 C   0  0  0  0  0  0  0  0  0  0  0  0
    3.8067    1.7594   -2.8469 H   0  0  0  0  0  0  0  0  0  0  0  0
    3.9534    0.2271   -3.7211 H   0  0  0  0  0  0  0  0  0  0  0  0
    2.7218   -0.1721   -1.6527 H   0  0  0  0  0  0  0  0  0  0  0  0
    3.9447    0.6618   -0.6916 H   0  0  0  0  0  0  0  0  0  0  0  0
    4.3807   -1.8885   -2.3133 H   0  0  0  0  0  0  0  0  0  0  0  0
    4.2132   -1.8128   -0.5545 H   0  0  0  0  0  0  0  0  0  0  0  0
    6.1646   -0.3126   -0.3908 H   0  0  0  0  0  0  0  0  0  0  0  0
    6.5888   -2.6560   -0.1041 H   0  0  0  0  0  0  0  0  0  0  0  0
    9.0004   -2.6792   -0.6551 H   0  0  0  0  0  0  0  0  0  0  0  0
    8.5108   -1.0839   -0.0933 H   0  0  0  0  0  0  0  0  0  0  0  0
    9.8762   -0.9107   -2.1607 H   0  0  0  0  0  0  0  0  0  0  0  0
    8.2583    0.5344   -3.4413 H   0  0  0  0  0  0  0  0  0  0  0  0
    8.2734    0.8181   -1.7174 H   0  0  0  0  0  0  0  0  0  0  0  0
    9.4629   -3.0613   -3.0518 H   0  0  0  0  0  0  0  0  0  0  0  0
   10.2786   -1.7041   -4.7267 H   0  0  0  0  0  0  0  0  0  0  0  0
    8.7740   -0.8102   -4.9667 H   0  0  0  0  0  0  0  0  0  0  0  0
    9.1055   -2.4010   -6.8096 H   0  0  0  0  0  0  0  0  0  0  0  0
    8.9220   -4.4263   -4.8536 H   0  0  0  0  0  0  0  0  0  0  0  0
    6.9698   -3.9394   -6.1831 H   0  0  0  0  0  0  0  0  0  0  0  0
    6.8035   -2.2313   -6.5995 H   0  0  0  0  0  0  0  0  0  0  0  0
    5.6227   -3.1681   -4.4737 H   0  0  0  0  0  0  0  0  0  0  0  0
    6.3277   -1.5637   -4.4469 H   0  0  0  0  0  0  0  0  0  0  0  0
    7.3018   -4.1929   -1.7300 H   0  0  0  0  0  0  0  0  0  0  0  0
    5.7662   -3.6179   -2.2681 H   0  0  0  0  0  0  0  0  0  0  0  0
  1  2  2  0  0  0  0
  2  3  1  0  0  0  0
  2 11  1  0  0  0  0
  3  4  1  0  0  0  0
  3 20  1  0  0  0  0
  3 21  1  0  0  0  0
  4  5  1  0  0  0  0
  4 22  1  0  0  0  0
  4 23  1  0  0  0  0
  5  6  1  0  0  0  0
  5 24  1  0  0  0  0
  5 25  1  0  0  0  0
  6  7  1  0  0  0  0
  6 11  1  0  0  0  0
  6 26  1  6  0  0  0
  7  8  1  0  0  0  0
  7 19  1  0  0  0  0
  7 27  1  1  0  0  0
  8  9  1  0  0  0  0
  8 28  1  0  0  0  0
  8 29  1  0  0  0  0
  9 10  1  0  0  0  0
  9 12  1  0  0  0  0
  9 30  1  1  0  0  0
 10 11  1  0  0  0  0
 10 31  1  0  0  0  0
 10 32  1  0  0  0  0
 12 13  1  0  0  0  0
 12 18  1  0  0  0  0
 12 33  1  6  0  0  0
 13 14  1  0  0  0  0
 13 34  1  0  0  0  0
 13 35  1  0  0  0  0
 14 15  1  0  0  0  0
 14 16  1  0  0  0  0
 14 36  1  6  0  0  0
 15 37  1  0  0  0  0
 16 17  1  0  0  0  0
 16 38  1  0  0  0  0
 16 39  1  0  0  0  0
 17 18  1  0  0  0  0
 17 40  1  0  0  0  0
 17 41  1  0  0  0  0
 18 19  1  0  0  0  0
 19 42  1  0  0  0  0
 19 43  1  0  0  0  0
M  END
$$$$
