CHEBI:17484
 OpenBabel04242416403D

 17 17  0  0  0  0  0  0  0  0999 V2000
    3.5349    1.1719    2.2587 S   0  0  0  0  0  0  0  0  0  0  0  0
    3.9213    0.3898    0.9276 C   0  0  0  0  0  0  0  0  0  0  0  0
    4.1856   -0.1972   -0.0544 N   0  0  0  0  0  0  0  0  0  0  0  0
    4.9775    0.5707   -1.0309 C   0  0  0  0  0  0  0  0  0  0  0  0
    6.4672    0.4367   -0.8167 C   0  0  0  0  0  0  0  0  0  0  0  0
    7.0813   -0.8216   -0.8962 C   0  0  0  0  0  0  0  0  0  0  0  0
    8.4582   -0.9514   -0.7097 C   0  0  0  0  0  0  0  0  0  0  0  0
    9.2345    0.1742   -0.4414 C   0  0  0  0  0  0  0  0  0  0  0  0
    8.6345    1.4294   -0.3566 C   0  0  0  0  0  0  0  0  0  0  0  0
    7.2570    1.5616   -0.5425 C   0  0  0  0  0  0  0  0  0  0  0  0
    4.6812    1.6298   -1.0496 H   0  0  0  0  0  0  0  0  0  0  0  0
    4.7457    0.1875   -2.0330 H   0  0  0  0  0  0  0  0  0  0  0  0
    6.4845   -1.7081   -1.1019 H   0  0  0  0  0  0  0  0  0  0  0  0
    8.9244   -1.9312   -0.7732 H   0  0  0  0  0  0  0  0  0  0  0  0
   10.3069    0.0728   -0.2970 H   0  0  0  0  0  0  0  0  0  0  0  0
    9.2409    2.3065   -0.1457 H   0  0  0  0  0  0  0  0  0  0  0  0
    6.8082    2.5498   -0.4724 H   0  0  0  0  0  0  0  0  0  0  0  0
  1  2  2  0  0  0  0
  2  3  2  0  0  0  0
  3  4  1  0  0  0  0
  4  5  1  0  0  0  0
  4 11  1  0  0  0  0
  4 12  1  0  0  0  0
  5  6  1  0  0  0  0
  5 10  2  0  0  0  0
  6  7  2  0  0  0  0
  6 13  1  0  0  0  0
  7  8  1  0  0  0  0
  7 14  1  0  0  0  0
  8  9  2  0  0  0  0
  8 15  1  0  0  0  0
  9 10  1  0  0  0  0
  9 16  1  0  0  0  0
 10 17  1  0  0  0  0
M  END
$$$$
