CHEBI:3716
 OpenBabel04242410533D

 29 31  0  0  0  0  0  0  0  0999 V2000
    3.3953   -0.7451    1.5001 C   0  0  0  0  0  0  0  0  0  0  0  0
    2.3114   -1.0022    0.4648 C   0  0  0  0  0  0  0  0  0  0  0  0
    2.7369   -2.0251   -0.5034 N   0  0  0  0  0  0  0  0  0  0  0  0
    3.4137   -1.5436   -1.5878 N   0  0  0  0  0  0  0  0  0  0  0  0
    3.8226   -2.3551   -2.5286 C   0  0  0  0  0  0  0  0  0  0  0  0
    4.5690   -1.6749   -3.6758 C   0  0  0  0  0  0  0  0  0  0  0  0
    5.0430   -2.2471   -4.6329 O   0  0  0  0  0  0  0  0  0  0  0  0
    4.6393   -0.3405   -3.4706 O   0  0  0  0  0  0  0  0  0  0  0  0
    3.5724   -3.8301   -2.4593 C   0  0  0  0  0  0  0  0  0  0  0  0
    3.8630   -4.5652   -3.3884 O   0  0  0  0  0  0  0  0  0  0  0  0
    2.9660   -4.3431   -1.2300 C   0  0  0  0  0  0  0  0  0  0  0  0
    2.7996   -5.7282   -1.0690 C   0  0  0  0  0  0  0  0  0  0  0  0
    2.2189   -6.1569    0.0978 C   0  0  0  0  0  0  0  0  0  0  0  0
    1.8223   -5.2683    1.0642 C   0  0  0  0  0  0  0  0  0  0  0  0
    1.9801   -3.9014    0.9170 C   0  0  0  0  0  0  0  0  0  0  0  0
    2.5633   -3.3977   -0.2604 C   0  0  0  0  0  0  0  0  0  0  0  0
    1.2707   -5.8882    2.1423 O   0  0  0  0  0  0  0  0  0  0  0  0
    1.3523   -7.2710    1.7340 C   0  0  0  0  0  0  0  0  0  0  0  0
    1.9679   -7.4464    0.4410 O   0  0  0  0  0  0  0  0  0  0  0  0
    3.0724    0.0321    2.1999 H   0  0  0  0  0  0  0  0  0  0  0  0
    4.3215   -0.4084    1.0225 H   0  0  0  0  0  0  0  0  0  0  0  0
    3.6260   -1.6464    2.0761 H   0  0  0  0  0  0  0  0  0  0  0  0
    2.1108   -0.0648   -0.0705 H   0  0  0  0  0  0  0  0  0  0  0  0
    1.3629   -1.2659    0.9449 H   0  0  0  0  0  0  0  0  0  0  0  0
    4.1885   -0.1232   -2.6219 H   0  0  0  0  0  0  0  0  0  0  0  0
    3.1120   -6.4339   -1.8321 H   0  0  0  0  0  0  0  0  0  0  0  0
    1.6460   -3.2616    1.7247 H   0  0  0  0  0  0  0  0  0  0  0  0
    0.3385   -7.6866    1.6997 H   0  0  0  0  0  0  0  0  0  0  0  0
    1.9355   -7.8235    2.4794 H   0  0  0  0  0  0  0  0  0  0  0  0
  1  2  1  0  0  0  0
  1 20  1  0  0  0  0
  1 21  1  0  0  0  0
  1 22  1  0  0  0  0
  2  3  1  0  0  0  0
  2 23  1  0  0  0  0
  2 24  1  0  0  0  0
  3  4  1  0  0  0  0
  3 16  1  0  0  0  0
  4  5  2  0  0  0  0
  5  6  1  0  0  0  0
  5  9  1  0  0  0  0
  6  7  2  0  0  0  0
  6  8  1  0  0  0  0
  8 25  1  0  0  0  0
  9 10  2  0  0  0  0
  9 11  1  0  0  0  0
 11 12  1  0  0  0  0
 11 16  2  0  0  0  0
 12 13  2  0  0  0  0
 12 26  1  0  0  0  0
 13 14  1  0  0  0  0
 13 19  1  0  0  0  0
 14 15  2  0  0  0  0
 14 17  1  0  0  0  0
 15 16  1  0  0  0  0
 15 27  1  0  0  0  0
 17 18  1  0  0  0  0
 18 19  1  0  0  0  0
 18 28  1  0  0  0  0
 18 29  1  0  0  0  0
M  END
$$$$
