CHEBI:17383
 OpenBabel04242416273D

 64 67  0  0  1  0  0  0  0  0999 V2000
    5.5542   -1.0832   -4.4391 N   0  0  0  0  0  0  0  0  0  0  0  0
    6.3171   -2.0462   -3.8625 C   0  0  0  0  0  0  0  0  0  0  0  0
    5.8445   -2.7320   -2.8580 N   0  0  0  0  0  0  0  0  0  0  0  0
    6.7205   -3.6446   -2.3712 C   0  0  0  0  0  0  0  0  0  0  0  0
    7.9943   -3.9189   -2.8137 C   0  0  0  0  0  0  0  0  0  0  0  0
    8.5905   -4.8945   -2.0602 N   0  0  0  0  0  0  0  0  0  0  0  0
    7.6848   -5.2006   -1.1508 C   0  0  0  0  0  0  0  0  0  0  0  0
    6.5304   -4.4705   -1.2947 N   0  0  0  0  0  0  0  0  0  0  0  0
    5.3654   -4.4667   -0.4333 C   0  0  2  0  0  0  0  0  0  0  0  0
    5.6357   -3.5652    0.6667 O   0  0  0  0  0  0  0  0  0  0  0  0
    5.1351   -4.1523    1.8863 C   0  0  2  0  0  0  0  0  0  0  0  0
    6.3291   -4.4794    2.7912 C   0  0  0  0  0  0  0  0  0  0  0  0
    7.0673   -5.5521    2.2395 O   0  0  0  0  0  0  0  0  0  0  0  0
    8.4626   -5.9952    2.8971 P   0  0  0  0  0  0  0  0  0  0  0  0
    9.0093   -7.2505    2.3075 O   0  0  0  0  0  0  0  0  0  0  0  0
    8.0849   -6.1788    4.4446 O   0  0  0  0  0  0  0  0  0  0  0  0
    9.4002   -4.7136    2.8816 O   0  0  0  0  0  0  0  0  0  0  0  0
   10.9801   -4.9020    2.8922 P   0  0  0  0  0  0  0  0  0  0  0  0
   11.4885   -5.9509    3.8247 O   0  0  0  0  0  0  0  0  0  0  0  0
   11.3178   -5.1766    1.3535 O   0  0  0  0  0  0  0  0  0  0  0  0
   11.5785   -3.4329    3.1250 O   0  0  0  0  0  0  0  0  0  0  0  0
   12.9899   -3.3622    3.2375 C   0  0  0  0  0  0  0  0  0  0  0  0
   13.6053   -3.5426    1.9542 O   0  0  0  0  0  0  0  0  0  0  0  0
   13.2520   -2.5032    1.0239 C   0  0  2  0  0  0  0  0  0  0  0  0
   13.8934   -2.8382   -0.3289 C   0  0  0  0  0  0  0  0  0  0  0  0
   13.5937   -1.8319   -1.2917 O   0  0  0  0  0  0  0  0  0  0  0  0
   13.6862   -1.1172    1.5364 C   0  0  1  0  0  0  0  0  0  0  0  0
   13.2485   -0.0464    0.6916 O   0  0  0  0  0  0  0  0  0  0  0  0
   13.1038   -0.8731    2.9319 C   0  0  2  0  0  0  0  0  0  0  0  0
   13.6414    0.3432    3.4810 O   0  0  0  0  0  0  0  0  0  0  0  0
   13.4443   -2.0327    3.8642 C   0  0  1  0  0  0  0  0  0  0  0  0
   12.8557   -1.8146    5.1513 O   0  0  0  0  0  0  0  0  0  0  0  0
    4.3021   -5.3674    1.4739 C   0  0  1  0  0  0  0  0  0  0  0  0
    2.9471   -4.9745    1.1710 O   0  0  0  0  0  0  0  0  0  0  0  0
    4.9437   -5.8134    0.1667 C   0  0  1  0  0  0  0  0  0  0  0  0
    4.0123   -6.5335   -0.6427 O   0  0  0  0  0  0  0  0  0  0  0  0
    8.5000   -3.1573   -3.9347 C   0  0  0  0  0  0  0  0  0  0  0  0
    9.6090   -3.2778   -4.4456 O   0  0  0  0  0  0  0  0  0  0  0  0
    7.5785   -2.2243   -4.3922 N   0  0  0  0  0  0  0  0  0  0  0  0
    4.7341   -0.8749   -3.8764 H   0  0  0  0  0  0  0  0  0  0  0  0
    6.0394   -0.2458   -4.7323 H   0  0  0  0  0  0  0  0  0  0  0  0
    7.8287   -5.9357   -0.3700 H   0  0  0  0  0  0  0  0  0  0  0  0
    4.5331   -4.0465   -1.0115 H   0  0  0  0  0  0  0  0  0  0  0  0
    4.5166   -3.3910    2.3741 H   0  0  0  0  0  0  0  0  0  0  0  0
    5.9703   -4.7688    3.7836 H   0  0  0  0  0  0  0  0  0  0  0  0
    6.9800   -3.6039    2.8828 H   0  0  0  0  0  0  0  0  0  0  0  0
    8.6840   -6.8324    4.8576 H   0  0  0  0  0  0  0  0  0  0  0  0
   12.2086   -5.5532    1.2311 H   0  0  0  0  0  0  0  0  0  0  0  0
   13.3331   -4.1727    3.8899 H   0  0  0  0  0  0  0  0  0  0  0  0
   12.1650   -2.4968    0.8680 H   0  0  0  0  0  0  0  0  0  0  0  0
   14.9814   -2.9244   -0.2362 H   0  0  0  0  0  0  0  0  0  0  0  0
   13.5187   -3.8041   -0.6867 H   0  0  0  0  0  0  0  0  0  0  0  0
   13.6740   -2.2526   -2.1695 H   0  0  0  0  0  0  0  0  0  0  0  0
   14.7806   -1.0573    1.5882 H   0  0  0  0  0  0  0  0  0  0  0  0
   13.3506   -0.3647   -0.2344 H   0  0  0  0  0  0  0  0  0  0  0  0
   12.0189   -0.7198    2.8828 H   0  0  0  0  0  0  0  0  0  0  0  0
   13.5467    1.0009    2.7608 H   0  0  0  0  0  0  0  0  0  0  0  0
   14.5313   -2.0574    4.0156 H   0  0  0  0  0  0  0  0  0  0  0  0
   13.0356   -0.8740    5.3542 H   0  0  0  0  0  0  0  0  0  0  0  0
    4.2501   -6.1597    2.2262 H   0  0  0  0  0  0  0  0  0  0  0  0
    2.5381   -4.6607    1.9980 H   0  0  0  0  0  0  0  0  0  0  0  0
    5.7907   -6.4748    0.3602 H   0  0  0  0  0  0  0  0  0  0  0  0
    3.1365   -6.1405   -0.4429 H   0  0  0  0  0  0  0  0  0  0  0  0
    7.8675   -1.6943   -5.1958 H   0  0  0  0  0  0  0  0  0  0  0  0
  1  2  1  0  0  0  0
  1 40  1  0  0  0  0
  1 41  1  0  0  0  0
  2  3  2  0  0  0  0
  2 39  1  0  0  0  0
  3  4  1  0  0  0  0
  4  5  2  0  0  0  0
  4  8  1  0  0  0  0
  5  6  1  0  0  0  0
  5 37  1  0  0  0  0
  6  7  2  0  0  0  0
  7  8  1  0  0  0  0
  7 42  1  0  0  0  0
  8  9  1  0  0  0  0
  9 10  1  0  0  0  0
  9 35  1  0  0  0  0
  9 43  1  6  0  0  0
 10 11  1  0  0  0  0
 11 12  1  0  0  0  0
 11 33  1  0  0  0  0
 11 44  1  1  0  0  0
 12 13  1  0  0  0  0
 12 45  1  0  0  0  0
 12 46  1  0  0  0  0
 13 14  1  0  0  0  0
 14 15  2  0  0  0  0
 14 16  1  0  0  0  0
 14 17  1  0  0  0  0
 16 47  1  0  0  0  0
 17 18  1  0  0  0  0
 18 19  2  0  0  0  0
 18 20  1  0  0  0  0
 18 21  1  0  0  0  0
 20 48  1  0  0  0  0
 21 22  1  0  0  0  0
 22 23  1  0  0  0  0
 22 31  1  0  0  0  0
 22 49  1  0  0  0  0
 23 24  1  0  0  0  0
 24 27  1  0  0  0  0
 24 25  1  0  0  0  0
 24 50  1  6  0  0  0
 25 26  1  0  0  0  0
 25 51  1  0  0  0  0
 25 52  1  0  0  0  0
 26 53  1  0  0  0  0
 27 28  1  0  0  0  0
 27 29  1  0  0  0  0
 27 54  1  1  0  0  0
 28 55  1  0  0  0  0
 29 30  1  0  0  0  0
 29 31  1  0  0  0  0
 29 56  1  6  0  0  0
 30 57  1  0  0  0  0
 31 32  1  0  0  0  0
 31 58  1  1  0  0  0
 32 59  1  0  0  0  0
 33 34  1  0  0  0  0
 33 35  1  0  0  0  0
 33 60  1  1  0  0  0
 34 61  1  0  0  0  0
 35 36  1  0  0  0  0
 35 62  1  1  0  0  0
 36 63  1  0  0  0  0
 37 38  2  0  0  0  0
 37 39  1  0  0  0  0
 39 64  1  0  0  0  0
M  END
$$$$
