CHEBI:17469
 OpenBabel04242416393D

 51 54  0  0  1  0  0  0  0  0999 V2000
   -0.7759    2.0068   -4.1500 N   0  0  0  0  0  0  0  0  0  0  0  0
   -0.4688    0.9647   -3.2865 C   0  0  0  0  0  0  0  0  0  0  0  0
   -1.2856   -0.1135   -3.2667 N   0  0  0  0  0  0  0  0  0  0  0  0
   -0.9976   -1.1231   -2.4181 C   0  0  0  0  0  0  0  0  0  0  0  0
    0.0432   -1.2315   -1.5611 N   0  0  0  0  0  0  0  0  0  0  0  0
    0.8217   -0.1359   -1.6249 C   0  0  0  0  0  0  0  0  0  0  0  0
    0.6535    0.9697   -2.4419 C   0  0  0  0  0  0  0  0  0  0  0  0
    1.6746    1.8768   -2.2512 N   0  0  0  0  0  0  0  0  0  0  0  0
    2.4252    1.3475   -1.3065 C   0  0  0  0  0  0  0  0  0  0  0  0
    1.9518    0.1294   -0.8976 N   0  0  0  0  0  0  0  0  0  0  0  0
    2.4780   -0.7157    0.1578 C   0  0  2  0  0  0  0  0  0  0  0  0
    3.6774   -0.1210    0.6983 O   0  0  0  0  0  0  0  0  0  0  0  0
    4.5924   -1.1876    1.0458 C   0  0  2  0  0  0  0  0  0  0  0  0
    5.8773   -1.0133    0.2342 C   0  0  0  0  0  0  0  0  0  0  0  0
    6.8063   -2.0181    0.5967 O   0  0  0  0  0  0  0  0  0  0  0  0
    8.2811   -1.9312   -0.0489 P   0  0  0  0  0  0  0  0  0  0  0  0
    8.9444   -0.6408    0.3165 O   0  0  0  0  0  0  0  0  0  0  0  0
    8.9875   -3.1137    0.7766 O   0  0  0  0  0  0  0  0  0  0  0  0
    8.2166   -2.4165   -1.5962 N   0  0  0  0  0  0  0  0  0  0  0  0
    7.7540   -3.6438   -2.1296 C   0  0  0  0  0  0  0  0  0  0  0  0
    6.8673   -4.4566   -1.4071 C   0  0  0  0  0  0  0  0  0  0  0  0
    6.3186   -5.6172   -1.9613 C   0  0  0  0  0  0  0  0  0  0  0  0
    6.6476   -5.9961   -3.2565 C   0  0  0  0  0  0  0  0  0  0  0  0
    7.5301   -5.2154   -3.9989 C   0  0  0  0  0  0  0  0  0  0  0  0
    8.0794   -4.0419   -3.4510 C   0  0  0  0  0  0  0  0  0  0  0  0
    9.0464   -3.2440   -4.2523 C   0  0  0  0  0  0  0  0  0  0  0  0
    9.7030   -2.3040   -3.8339 O   0  0  0  0  0  0  0  0  0  0  0  0
    9.1546   -3.6506   -5.5292 O   0  0  0  0  0  0  0  0  0  0  0  0
    3.8734   -2.5056    0.7571 C   0  0  1  0  0  0  0  0  0  0  0  0
    3.1458   -2.9318    1.9207 O   0  0  0  0  0  0  0  0  0  0  0  0
    2.8761   -2.1164   -0.3187 C   0  0  1  0  0  0  0  0  0  0  0  0
    1.8129   -3.0697   -0.3562 O   0  0  0  0  0  0  0  0  0  0  0  0
   -1.3692    1.7164   -4.9151 H   0  0  0  0  0  0  0  0  0  0  0  0
    0.0125    2.6089   -4.3596 H   0  0  0  0  0  0  0  0  0  0  0  0
   -1.6939   -1.9578   -2.4294 H   0  0  0  0  0  0  0  0  0  0  0  0
    3.3099    1.8060   -0.8807 H   0  0  0  0  0  0  0  0  0  0  0  0
    1.7159   -0.7466    0.9464 H   0  0  0  0  0  0  0  0  0  0  0  0
    4.8200   -1.1006    2.1146 H   0  0  0  0  0  0  0  0  0  0  0  0
    6.3031   -0.0229    0.4314 H   0  0  0  0  0  0  0  0  0  0  0  0
    5.6726   -1.0681   -0.8408 H   0  0  0  0  0  0  0  0  0  0  0  0
    9.1875   -2.8083    1.6799 H   0  0  0  0  0  0  0  0  0  0  0  0
    9.0090   -2.0687   -2.1401 H   0  0  0  0  0  0  0  0  0  0  0  0
    6.5903   -4.2134   -0.3865 H   0  0  0  0  0  0  0  0  0  0  0  0
    5.6345   -6.2253   -1.3735 H   0  0  0  0  0  0  0  0  0  0  0  0
    6.2250   -6.9014   -3.6856 H   0  0  0  0  0  0  0  0  0  0  0  0
    7.7895   -5.5336   -5.0062 H   0  0  0  0  0  0  0  0  0  0  0  0
    9.8195   -3.0460   -5.9213 H   0  0  0  0  0  0  0  0  0  0  0  0
    4.5249   -3.3330    0.4686 H   0  0  0  0  0  0  0  0  0  0  0  0
    2.4581   -3.5431    1.5818 H   0  0  0  0  0  0  0  0  0  0  0  0
    3.3641   -2.0837   -1.3002 H   0  0  0  0  0  0  0  0  0  0  0  0
    1.0830   -2.6662   -0.8758 H   0  0  0  0  0  0  0  0  0  0  0  0
  1  2  1  0  0  0  0
  1 33  1  0  0  0  0
  1 34  1  0  0  0  0
  2  3  1  0  0  0  0
  2  7  2  0  0  0  0
  3  4  2  0  0  0  0
  4  5  1  0  0  0  0
  4 35  1  0  0  0  0
  5  6  2  0  0  0  0
  6  7  1  0  0  0  0
  6 10  1  0  0  0  0
  7  8  1  0  0  0  0
  8  9  2  0  0  0  0
  9 10  1  0  0  0  0
  9 36  1  0  0  0  0
 10 11  1  0  0  0  0
 11 12  1  0  0  0  0
 11 31  1  0  0  0  0
 11 37  1  1  0  0  0
 12 13  1  0  0  0  0
 13 14  1  0  0  0  0
 13 29  1  0  0  0  0
 13 38  1  1  0  0  0
 14 15  1  0  0  0  0
 14 39  1  0  0  0  0
 14 40  1  0  0  0  0
 15 16  1  0  0  0  0
 16 17  2  0  0  0  0
 16 18  1  0  0  0  0
 16 19  1  0  0  0  0
 18 41  1  0  0  0  0
 19 20  1  0  0  0  0
 19 42  1  0  0  0  0
 20 21  1  0  0  0  0
 20 25  2  0  0  0  0
 21 22  2  0  0  0  0
 21 43  1  0  0  0  0
 22 23  1  0  0  0  0
 22 44  1  0  0  0  0
 23 24  2  0  0  0  0
 23 45  1  0  0  0  0
 24 25  1  0  0  0  0
 24 46  1  0  0  0  0
 25 26  1  0  0  0  0
 26 27  2  0  0  0  0
 26 28  1  0  0  0  0
 28 47  1  0  0  0  0
 29 30  1  0  0  0  0
 29 31  1  0  0  0  0
 29 48  1  6  0  0  0
 30 49  1  0  0  0  0
 31 32  1  0  0  0  0
 31 50  1  6  0  0  0
 32 51  1  0  0  0  0
M  END
$$$$
