CHEBI:16153
 OpenBabel04242413553D

 51 52  0  0  1  0  0  0  0  0999 V2000
   11.4474    7.6164    0.1733 C   0  0  0  0  0  0  0  0  0  0  0  0
   10.0109    7.7857   -0.2400 C   0  0  0  0  0  0  0  0  0  0  0  0
    9.4805    8.8896   -0.3071 O   0  0  0  0  0  0  0  0  0  0  0  0
    9.3558    6.6122   -0.5278 N   0  0  0  0  0  0  0  0  0  0  0  0
    7.9920    6.6058   -1.0818 C   0  0  2  0  0  0  0  0  0  0  0  0
    7.2315    5.3608   -0.5725 C   0  0  1  0  0  0  0  0  0  0  0  0
    5.8635    5.6934   -0.2541 O   0  0  0  0  0  0  0  0  0  0  0  0
    7.2430    4.1661   -1.5350 C   0  0  2  0  0  0  0  0  0  0  0  0
    8.5129    3.4876   -1.4952 O   0  0  0  0  0  0  0  0  0  0  0  0
    8.5860    2.4130   -0.5631 C   0  0  2  0  0  0  0  0  0  0  0  0
    8.7692    2.8772    0.7738 O   0  0  0  0  0  0  0  0  0  0  0  0
   10.1259    3.0091    1.2318 C   0  0  2  0  0  0  0  0  0  0  0  0
   10.1777    4.1506    2.2513 C   0  0  0  0  0  0  0  0  0  0  0  0
   11.4430    4.1850    2.9006 O   0  0  0  0  0  0  0  0  0  0  0  0
   11.1631    3.1721    0.1108 C   0  0  2  0  0  0  0  0  0  0  0  0
   10.9463    4.3724   -0.6511 O   0  0  0  0  0  0  0  0  0  0  0  0
   11.1045    1.9520   -0.8194 C   0  0  2  0  0  0  0  0  0  0  0  0
   11.6968    2.3290   -2.0748 O   0  0  0  0  0  0  0  0  0  0  0  0
    9.6751    1.4110   -1.0082 C   0  0  1  0  0  0  0  0  0  0  0  0
    9.5498    0.1794   -0.2696 O   0  0  0  0  0  0  0  0  0  0  0  0
    7.0284    4.5953   -2.9961 C   0  0  1  0  0  0  0  0  0  0  0  0
    5.5791    4.9665   -3.3689 C   0  0  0  0  0  0  0  0  0  0  0  0
    5.0424    6.0605   -2.6300 O   0  0  0  0  0  0  0  0  0  0  0  0
    7.9870    5.5821   -3.3872 O   0  0  0  0  0  0  0  0  0  0  0  0
    7.9996    6.7821   -2.6287 C   0  0  1  0  0  0  0  0  0  0  0  0
    7.0068    7.6824   -3.0992 O   0  0  0  0  0  0  0  0  0  0  0  0
   11.6314    6.6246    0.5919 H   0  0  0  0  0  0  0  0  0  0  0  0
   11.6855    8.3537    0.9455 H   0  0  0  0  0  0  0  0  0  0  0  0
   12.0934    7.7717   -0.6942 H   0  0  0  0  0  0  0  0  0  0  0  0
    9.9214    5.7646   -0.6465 H   0  0  0  0  0  0  0  0  0  0  0  0
    7.4984    7.4936   -0.6650 H   0  0  0  0  0  0  0  0  0  0  0  0
    7.6646    5.0541    0.3849 H   0  0  0  0  0  0  0  0  0  0  0  0
    5.9019    6.3525    0.4683 H   0  0  0  0  0  0  0  0  0  0  0  0
    6.4411    3.4635   -1.2740 H   0  0  0  0  0  0  0  0  0  0  0  0
    7.6333    1.8696   -0.5665 H   0  0  0  0  0  0  0  0  0  0  0  0
   10.3660    2.0827    1.7704 H   0  0  0  0  0  0  0  0  0  0  0  0
    9.9899    5.1173    1.7768 H   0  0  0  0  0  0  0  0  0  0  0  0
    9.4021    4.0099    3.0123 H   0  0  0  0  0  0  0  0  0  0  0  0
   11.4347    4.9574    3.4939 H   0  0  0  0  0  0  0  0  0  0  0  0
   12.1755    3.2578    0.5212 H   0  0  0  0  0  0  0  0  0  0  0  0
   11.3051    4.1519   -1.5420 H   0  0  0  0  0  0  0  0  0  0  0  0
   11.7372    1.1625   -0.3947 H   0  0  0  0  0  0  0  0  0  0  0  0
   11.7493    1.5219   -2.6203 H   0  0  0  0  0  0  0  0  0  0  0  0
    9.5173    1.1548   -2.0622 H   0  0  0  0  0  0  0  0  0  0  0  0
    9.2339    0.3924    0.6283 H   0  0  0  0  0  0  0  0  0  0  0  0
    7.2749    3.7275   -3.6225 H   0  0  0  0  0  0  0  0  0  0  0  0
    4.9148    4.1078   -3.2261 H   0  0  0  0  0  0  0  0  0  0  0  0
    5.5396    5.2541   -4.4245 H   0  0  0  0  0  0  0  0  0  0  0  0
    4.9568    5.7758   -1.6927 H   0  0  0  0  0  0  0  0  0  0  0  0
    8.9405    7.2721   -2.9027 H   0  0  0  0  0  0  0  0  0  0  0  0
    6.1384    7.3134   -2.8430 H   0  0  0  0  0  0  0  0  0  0  0  0
  1  2  1  0  0  0  0
  1 27  1  0  0  0  0
  1 28  1  0  0  0  0
  1 29  1  0  0  0  0
  2  3  2  0  0  0  0
  2  4  1  0  0  0  0
  4  5  1  0  0  0  0
  4 30  1  0  0  0  0
  5  6  1  0  0  0  0
  5 25  1  0  0  0  0
  5 31  1  1  0  0  0
  6  7  1  0  0  0  0
  6  8  1  0  0  0  0
  6 32  1  1  0  0  0
  7 33  1  0  0  0  0
  8 21  1  0  0  0  0
  8  9  1  0  0  0  0
  8 34  1  1  0  0  0
  9 10  1  0  0  0  0
 10 11  1  0  0  0  0
 10 19  1  0  0  0  0
 10 35  1  6  0  0  0
 11 12  1  0  0  0  0
 12 15  1  0  0  0  0
 12 13  1  0  0  0  0
 12 36  1  1  0  0  0
 13 14  1  0  0  0  0
 13 37  1  0  0  0  0
 13 38  1  0  0  0  0
 14 39  1  0  0  0  0
 15 17  1  0  0  0  0
 15 16  1  0  0  0  0
 15 40  1  1  0  0  0
 16 41  1  0  0  0  0
 17 19  1  0  0  0  0
 17 18  1  0  0  0  0
 17 42  1  1  0  0  0
 18 43  1  0  0  0  0
 19 20  1  0  0  0  0
 19 44  1  6  0  0  0
 20 45  1  0  0  0  0
 21 22  1  0  0  0  0
 21 24  1  0  0  0  0
 21 46  1  6  0  0  0
 22 23  1  0  0  0  0
 22 47  1  0  0  0  0
 22 48  1  0  0  0  0
 23 49  1  0  0  0  0
 24 25  1  0  0  0  0
 25 26  1  0  0  0  0
 25 50  1  6  0  0  0
 26 51  1  0  0  0  0
M  END
$$$$
