CHEBI:16355
 OpenBabel04242414153D

 16 16  0  0  0  0  0  0  0  0999 V2000
    1.3119   -0.6940   -0.3205 C   0  0  0  0  0  0  0  0  0  0  0  0
    2.3272   -1.6903   -0.4267 O   0  0  0  0  0  0  0  0  0  0  0  0
    3.0702   -1.8116    0.7192 C   0  0  0  0  0  0  0  0  0  0  0  0
    3.7479   -0.7105    1.2541 C   0  0  0  0  0  0  0  0  0  0  0  0
    4.5305   -0.8562    2.4012 C   0  0  0  0  0  0  0  0  0  0  0  0
    4.6512   -2.1039    3.0105 C   0  0  0  0  0  0  0  0  0  0  0  0
    3.9980   -3.2119    2.4684 C   0  0  0  0  0  0  0  0  0  0  0  0
    3.2153   -3.0690    1.3180 C   0  0  0  0  0  0  0  0  0  0  0  0
    2.2665   -4.7731    0.5572 I   0  0  0  0  0  0  0  0  0  0  0  0
    1.7309    0.3061   -0.4687 H   0  0  0  0  0  0  0  0  0  0  0  0
    0.7823   -0.7534    0.6373 H   0  0  0  0  0  0  0  0  0  0  0  0
    0.5845   -0.8732   -1.1182 H   0  0  0  0  0  0  0  0  0  0  0  0
    3.6920    0.2617    0.7737 H   0  0  0  0  0  0  0  0  0  0  0  0
    5.0549    0.0025    2.8131 H   0  0  0  0  0  0  0  0  0  0  0  0
    5.2627   -2.2171    3.9024 H   0  0  0  0  0  0  0  0  0  0  0  0
    4.1109   -4.1799    2.9501 H   0  0  0  0  0  0  0  0  0  0  0  0
  1  2  1  0  0  0  0
  1 10  1  0  0  0  0
  1 11  1  0  0  0  0
  1 12  1  0  0  0  0
  2  3  1  0  0  0  0
  3  4  1  0  0  0  0
  3  8  2  0  0  0  0
  4  5  2  0  0  0  0
  4 13  1  0  0  0  0
  5  6  1  0  0  0  0
  5 14  1  0  0  0  0
  6  7  2  0  0  0  0
  6 15  1  0  0  0  0
  7  8  1  0  0  0  0
  7 16  1  0  0  0  0
  8  9  1  0  0  0  0
M  END
$$$$
