CHEBI:17827
 OpenBabel04242417403D

 16 15  0  0  0  0  0  0  0  0999 V2000
    3.0177   -1.2043    1.2442 C   0  0  0  0  0  0  0  0  0  0  0  0
    3.5236   -0.7708   -0.4387 S   0  0  0  0  0  0  0  0  0  0  0  0
    4.0739    0.9388   -0.1254 C   0  0  0  0  0  0  0  0  0  0  0  0
    4.5586    1.5684   -1.4174 C   0  0  0  0  0  0  0  0  0  0  0  0
    5.0777    3.2448   -1.0993 S   0  0  0  0  0  0  0  0  0  0  0  0
    3.9260    4.0585   -0.7830 O   0  0  0  0  0  0  0  0  0  0  0  0
    6.2725    3.2417   -0.2893 O   0  0  0  0  0  0  0  0  0  0  0  0
    5.4939    3.6445   -2.6066 O   0  0  0  0  0  0  0  0  0  0  0  0
    2.6594   -2.2370    1.2576 H   0  0  0  0  0  0  0  0  0  0  0  0
    2.2075   -0.5506    1.5772 H   0  0  0  0  0  0  0  0  0  0  0  0
    3.8647   -1.1209    1.9300 H   0  0  0  0  0  0  0  0  0  0  0  0
    4.8763    0.9225    0.6194 H   0  0  0  0  0  0  0  0  0  0  0  0
    3.2358    1.5090    0.2890 H   0  0  0  0  0  0  0  0  0  0  0  0
    3.7633    1.6148   -2.1686 H   0  0  0  0  0  0  0  0  0  0  0  0
    5.4231    1.0359   -1.8275 H   0  0  0  0  0  0  0  0  0  0  0  0
    4.9896    4.4480   -2.8592 H   0  0  0  0  0  0  0  0  0  0  0  0
  1  2  1  0  0  0  0
  1  9  1  0  0  0  0
  1 10  1  0  0  0  0
  1 11  1  0  0  0  0
  2  3  1  0  0  0  0
  3  4  1  0  0  0  0
  3 12  1  0  0  0  0
  3 13  1  0  0  0  0
  4  5  1  0  0  0  0
  4 14  1  0  0  0  0
  4 15  1  0  0  0  0
  5  6  2  0  0  0  0
  5  7  2  0  0  0  0
  5  8  1  0  0  0  0
  8 16  1  0  0  0  0
M  END
$$$$
