CHEBI:16253
 OpenBabel04242414033D

 22 21  0  0  0  0  0  0  0  0999 V2000
    1.0982    3.6071   -0.3639 C   0  0  0  0  0  0  0  0  0  0  0  0
    2.2898    2.7124   -0.1495 C   0  0  0  0  0  0  0  0  0  0  0  0
    2.1790    1.5655    0.2742 O   0  0  0  0  0  0  0  0  0  0  0  0
    3.4886    3.3100   -0.4872 N   0  0  0  0  0  0  0  0  0  0  0  0
    4.7102    2.6892   -0.3722 C   0  0  0  0  0  0  0  0  0  0  0  0
    5.8932    3.2794   -0.6227 C   0  0  0  0  0  0  0  0  0  0  0  0
    7.1966    2.5488   -0.4475 C   0  0  0  0  0  0  0  0  0  0  0  0
    8.0366    2.5662   -1.7145 C   0  0  0  0  0  0  0  0  0  0  0  0
    7.5961    2.6613   -2.8503 O   0  0  0  0  0  0  0  0  0  0  0  0
    9.3600    2.4016   -1.4712 O   0  0  0  0  0  0  0  0  0  0  0  0
    5.9423    4.6959   -1.0512 C   0  0  0  0  0  0  0  0  0  0  0  0
    4.9925    5.3810   -1.3920 O   0  0  0  0  0  0  0  0  0  0  0  0
    7.1811    5.2076   -0.9678 O   0  0  0  0  0  0  0  0  0  0  0  0
    0.2820    3.2864    0.2899 H   0  0  0  0  0  0  0  0  0  0  0  0
    0.7776    3.5419   -1.4065 H   0  0  0  0  0  0  0  0  0  0  0  0
    1.3420    4.6447   -0.1177 H   0  0  0  0  0  0  0  0  0  0  0  0
    3.4764    4.2665   -0.8459 H   0  0  0  0  0  0  0  0  0  0  0  0
    4.6666    1.6539   -0.0348 H   0  0  0  0  0  0  0  0  0  0  0  0
    7.0361    1.4966   -0.1848 H   0  0  0  0  0  0  0  0  0  0  0  0
    7.7549    3.0166    0.3714 H   0  0  0  0  0  0  0  0  0  0  0  0
    9.5956    2.3467   -0.5258 H   0  0  0  0  0  0  0  0  0  0  0  0
    7.0829    6.1191   -1.3179 H   0  0  0  0  0  0  0  0  0  0  0  0
  1  2  1  0  0  0  0
  1 14  1  0  0  0  0
  1 15  1  0  0  0  0
  1 16  1  0  0  0  0
  2  3  2  0  0  0  0
  2  4  1  0  0  0  0
  4  5  1  0  0  0  0
  4 17  1  0  0  0  0
  5  6  2  0  0  0  0
  5 18  1  0  0  0  0
  6  7  1  0  0  0  0
  6 11  1  0  0  0  0
  7  8  1  0  0  0  0
  7 19  1  0  0  0  0
  7 20  1  0  0  0  0
  8  9  2  0  0  0  0
  8 10  1  0  0  0  0
 10 21  1  0  0  0  0
 11 12  2  0  0  0  0
 11 13  1  0  0  0  0
 13 22  1  0  0  0  0
M  END
$$$$
