CHEBI:16931
 OpenBabel04242415323D

 20 20  0  0  1  0  0  0  0  0999 V2000
   -1.6975    1.0252    0.6389 O   0  0  0  0  0  0  0  0  0  0  0  0
   -0.6861    0.8664   -0.3575 C   0  0  2  0  0  0  0  0  0  0  0  0
   -0.9628   -0.4139   -1.1514 C   0  0  0  0  0  0  0  0  0  0  0  0
   -0.7758   -1.6672   -0.2961 C   0  0  0  0  0  0  0  0  0  0  0  0
    0.6055   -1.7132    0.3503 C   0  0  0  0  0  0  0  0  0  0  0  0
    0.9107   -0.4401    1.1410 C   0  0  0  0  0  0  0  0  0  0  0  0
    0.6977    0.8350    0.3170 C   0  0  1  0  0  0  0  0  0  0  0  0
    1.7348    0.9689   -0.6587 O   0  0  0  0  0  0  0  0  0  0  0  0
   -2.5457    1.1385    0.1761 H   0  0  0  0  0  0  0  0  0  0  0  0
   -0.7434    1.7269   -1.0342 H   0  0  0  0  0  0  0  0  0  0  0  0
   -0.2958   -0.4637   -2.0201 H   0  0  0  0  0  0  0  0  0  0  0  0
   -1.9912   -0.4021   -1.5314 H   0  0  0  0  0  0  0  0  0  0  0  0
   -0.9201   -2.5590   -0.9167 H   0  0  0  0  0  0  0  0  0  0  0  0
   -1.5449   -1.6985    0.4853 H   0  0  0  0  0  0  0  0  0  0  0  0
    1.3663   -1.8612   -0.4251 H   0  0  0  0  0  0  0  0  0  0  0  0
    0.6686   -2.5805    1.0177 H   0  0  0  0  0  0  0  0  0  0  0  0
    1.9477   -0.4865    1.4938 H   0  0  0  0  0  0  0  0  0  0  0  0
    0.2648   -0.4108    2.0271 H   0  0  0  0  0  0  0  0  0  0  0  0
    0.7882    1.6948    0.9909 H   0  0  0  0  0  0  0  0  0  0  0  0
    1.7880    0.1463   -1.1716 H   0  0  0  0  0  0  0  0  0  0  0  0
  1  2  1  0  0  0  0
  1  9  1  0  0  0  0
  2  3  1  0  0  0  0
  2  7  1  0  0  0  0
  2 10  1  6  0  0  0
  3  4  1  0  0  0  0
  3 11  1  0  0  0  0
  3 12  1  0  0  0  0
  4  5  1  0  0  0  0
  4 13  1  0  0  0  0
  4 14  1  0  0  0  0
  5  6  1  0  0  0  0
  5 15  1  0  0  0  0
  5 16  1  0  0  0  0
  6  7  1  0  0  0  0
  6 17  1  0  0  0  0
  6 18  1  0  0  0  0
  7  8  1  0  0  0  0
  7 19  1  1  0  0  0
  8 20  1  0  0  0  0
M  END
$$$$
