CHEBI:17019
 OpenBabel04242415423D

 59 61  0  0  1  0  0  0  0  0999 V2000
    0.7713    5.7674    6.6343 N   0  0  0  0  0  0  0  0  0  0  0  0
    0.1564    6.7548    6.5804 C   0  0  0  0  0  0  0  0  0  0  0  0
   -0.6737    7.9866    6.4992 C   0  0  2  0  0  0  0  0  0  0  0  0
   -0.2077    8.9319    5.5162 O   0  0  0  0  0  0  0  0  0  0  0  0
   -0.3268    8.4683    4.1673 C   0  0  2  0  0  0  0  0  0  0  0  0
    0.6225    7.4301    3.9812 O   0  0  0  0  0  0  0  0  0  0  0  0
    0.6614    6.8906    2.6578 C   0  0  2  0  0  0  0  0  0  0  0  0
    1.6027    5.6811    2.7052 C   0  0  0  0  0  0  0  0  0  0  0  0
    0.9709    4.6452    3.4710 O   0  0  0  0  0  0  0  0  0  0  0  0
    1.8735    3.5829    3.8000 C   0  0  2  0  0  0  0  0  0  0  0  0
    2.3864    3.0125    2.5957 O   0  0  0  0  0  0  0  0  0  0  0  0
    3.2728    1.9045    2.8328 C   0  0  2  0  0  0  0  0  0  0  0  0
    3.8090    1.4641    1.4653 C   0  0  0  0  0  0  0  0  0  0  0  0
    2.7321    1.2129    0.5605 O   0  0  0  0  0  0  0  0  0  0  0  0
    2.5360    0.7685    3.5524 C   0  0  1  0  0  0  0  0  0  0  0  0
    3.4334   -0.3004    3.8665 O   0  0  0  0  0  0  0  0  0  0  0  0
    1.9386    1.2987    4.8543 C   0  0  2  0  0  0  0  0  0  0  0  0
    1.1552    0.2628    5.4713 O   0  0  0  0  0  0  0  0  0  0  0  0
    1.0803    2.5385    4.6154 C   0  0  1  0  0  0  0  0  0  0  0  0
    0.6640    3.0089    5.9067 O   0  0  0  0  0  0  0  0  0  0  0  0
    1.1476    7.9838    1.7007 C   0  0  1  0  0  0  0  0  0  0  0  0
    1.1913    7.5483    0.3396 O   0  0  0  0  0  0  0  0  0  0  0  0
    0.1700    9.1627    1.7825 C   0  0  2  0  0  0  0  0  0  0  0  0
    0.6533   10.2541    0.9805 O   0  0  0  0  0  0  0  0  0  0  0  0
   -0.0234    9.6489    3.2215 C   0  0  1  0  0  0  0  0  0  0  0  0
   -1.0913   10.6102    3.2373 O   0  0  0  0  0  0  0  0  0  0  0  0
   -0.6938    8.6697    7.8618 C   0  0  0  0  0  0  0  0  0  0  0  0
   -1.5581    8.2037    8.8684 C   0  0  0  0  0  0  0  0  0  0  0  0
   -1.5288    8.7647   10.1467 C   0  0  0  0  0  0  0  0  0  0  0  0
   -0.6393    9.7971   10.4368 C   0  0  0  0  0  0  0  0  0  0  0  0
    0.2212   10.2720    9.4504 C   0  0  0  0  0  0  0  0  0  0  0  0
    0.1979    9.7104    8.1732 C   0  0  0  0  0  0  0  0  0  0  0  0
   -1.7074    7.7222    6.2407 H   0  0  0  0  0  0  0  0  0  0  0  0
   -1.3469    8.0979    3.9998 H   0  0  0  0  0  0  0  0  0  0  0  0
   -0.3418    6.5397    2.3812 H   0  0  0  0  0  0  0  0  0  0  0  0
    1.7962    5.3015    1.6973 H   0  0  0  0  0  0  0  0  0  0  0  0
    2.5490    5.9608    3.1834 H   0  0  0  0  0  0  0  0  0  0  0  0
    2.6912    3.9972    4.4041 H   0  0  0  0  0  0  0  0  0  0  0  0
    4.1263    2.2437    3.4345 H   0  0  0  0  0  0  0  0  0  0  0  0
    4.4098    2.2671    1.0250 H   0  0  0  0  0  0  0  0  0  0  0  0
    4.4306    0.5671    1.5348 H   0  0  0  0  0  0  0  0  0  0  0  0
    2.1276    1.9736    0.6541 H   0  0  0  0  0  0  0  0  0  0  0  0
    1.7364    0.3571    2.9243 H   0  0  0  0  0  0  0  0  0  0  0  0
    2.9139   -0.9065    4.4339 H   0  0  0  0  0  0  0  0  0  0  0  0
    2.7387    1.5230    5.5717 H   0  0  0  0  0  0  0  0  0  0  0  0
    0.6619    0.7185    6.1852 H   0  0  0  0  0  0  0  0  0  0  0  0
    0.1631    2.2630    4.0810 H   0  0  0  0  0  0  0  0  0  0  0  0
    0.6162    3.9913    5.8764 H   0  0  0  0  0  0  0  0  0  0  0  0
    2.1515    8.3334    1.9731 H   0  0  0  0  0  0  0  0  0  0  0  0
    1.9970    7.0143    0.2163 H   0  0  0  0  0  0  0  0  0  0  0  0
   -0.7978    8.8857    1.3450 H   0  0  0  0  0  0  0  0  0  0  0  0
    0.8613    9.8599    0.1095 H   0  0  0  0  0  0  0  0  0  0  0  0
    0.8752   10.1780    3.5625 H   0  0  0  0  0  0  0  0  0  0  0  0
   -0.8464   11.2743    2.5623 H   0  0  0  0  0  0  0  0  0  0  0  0
   -2.2491    7.3860    8.6721 H   0  0  0  0  0  0  0  0  0  0  0  0
   -2.1929    8.3889   10.9211 H   0  0  0  0  0  0  0  0  0  0  0  0
   -0.6119   10.2281   11.4341 H   0  0  0  0  0  0  0  0  0  0  0  0
    0.9189   11.0745    9.6760 H   0  0  0  0  0  0  0  0  0  0  0  0
    0.8900   10.0864    7.4214 H   0  0  0  0  0  0  0  0  0  0  0  0
  1  2  3  0  0  0  0
  3 27  1  0  0  0  0
  3  4  1  0  0  0  0
  3  2  1  0  0  0  0
  3 33  1  6  0  0  0
  5  6  1  0  0  0  0
  5 25  1  0  0  0  0
  5  4  1  0  0  0  0
  5 34  1  6  0  0  0
  6  7  1  0  0  0  0
  7 21  1  0  0  0  0
  7  8  1  0  0  0  0
  7 35  1  6  0  0  0
  8  9  1  0  0  0  0
  8 36  1  0  0  0  0
  8 37  1  0  0  0  0
 10 11  1  0  0  0  0
 10 19  1  0  0  0  0
 10  9  1  0  0  0  0
 10 38  1  1  0  0  0
 11 12  1  0  0  0  0
 12 15  1  0  0  0  0
 12 13  1  0  0  0  0
 12 39  1  1  0  0  0
 13 14  1  0  0  0  0
 13 40  1  0  0  0  0
 13 41  1  0  0  0  0
 14 42  1  0  0  0  0
 15 16  1  0  0  0  0
 15 17  1  0  0  0  0
 15 43  1  6  0  0  0
 16 44  1  0  0  0  0
 17 18  1  0  0  0  0
 17 19  1  0  0  0  0
 17 45  1  1  0  0  0
 18 46  1  0  0  0  0
 19 20  1  0  0  0  0
 19 47  1  6  0  0  0
 20 48  1  0  0  0  0
 21 22  1  0  0  0  0
 21 23  1  0  0  0  0
 21 49  1  1  0  0  0
 22 50  1  0  0  0  0
 23 24  1  0  0  0  0
 23 25  1  0  0  0  0
 23 51  1  6  0  0  0
 24 52  1  0  0  0  0
 25 26  1  0  0  0  0
 25 53  1  1  0  0  0
 26 54  1  0  0  0  0
 27 28  1  0  0  0  0
 27 32  2  0  0  0  0
 28 29  2  0  0  0  0
 28 55  1  0  0  0  0
 29 30  1  0  0  0  0
 29 56  1  0  0  0  0
 30 31  2  0  0  0  0
 30 57  1  0  0  0  0
 31 32  1  0  0  0  0
 31 58  1  0  0  0  0
 32 59  1  0  0  0  0
M  END
$$$$
