CHEBI:16964
 OpenBabel04242415373D

 16 16  0  0  0  0  0  0  0  0999 V2000
   -2.2132    1.0129    0.1570 O   0  0  0  0  0  0  0  0  0  0  0  0
   -1.1858    0.3547    0.0394 C   0  0  0  0  0  0  0  0  0  0  0  0
   -1.1921   -1.0122    0.0925 N   0  0  0  0  0  0  0  0  0  0  0  0
   -0.0671   -1.7795   -0.0193 C   0  0  0  0  0  0  0  0  0  0  0  0
    1.1430   -1.2286   -0.1879 C   0  0  0  0  0  0  0  0  0  0  0  0
    2.4116   -2.0097   -0.2904 C   0  0  0  0  0  0  0  0  0  0  0  0
    2.7426   -2.2467   -1.6532 O   0  0  0  0  0  0  0  0  0  0  0  0
    1.2301    0.2563   -0.1918 C   0  0  0  0  0  0  0  0  0  0  0  0
    2.3018    0.8507   -0.2154 O   0  0  0  0  0  0  0  0  0  0  0  0
    0.0391    0.9287   -0.1398 N   0  0  0  0  0  0  0  0  0  0  0  0
   -2.1021   -1.4399    0.2257 H   0  0  0  0  0  0  0  0  0  0  0  0
   -0.2162   -2.8540    0.0327 H   0  0  0  0  0  0  0  0  0  0  0  0
    2.3138   -2.9834    0.2026 H   0  0  0  0  0  0  0  0  0  0  0  0
    3.2504   -1.4957    0.1892 H   0  0  0  0  0  0  0  0  0  0  0  0
    1.9475   -2.5667   -2.1098 H   0  0  0  0  0  0  0  0  0  0  0  0
    0.0789    1.9357   -0.1365 H   0  0  0  0  0  0  0  0  0  0  0  0
  1  2  2  0  0  0  0
  2  3  1  0  0  0  0
  2 10  1  0  0  0  0
  3  4  1  0  0  0  0
  3 11  1  0  0  0  0
  4  5  2  0  0  0  0
  4 12  1  0  0  0  0
  5  6  1  0  0  0  0
  5  8  1  0  0  0  0
  6  7  1  0  0  0  0
  6 13  1  0  0  0  0
  6 14  1  0  0  0  0
  7 15  1  0  0  0  0
  8  9  2  0  0  0  0
  8 10  1  0  0  0  0
 10 16  1  0  0  0  0
M  END
$$$$
