CHEBI:16583
 OpenBabel04242414473D

 12 11  0  0  0  0  0  0  0  0999 V2000
    1.1048    0.3044   -0.1229 C   0  0  0  0  0  0  0  0  0  0  0  0
    2.3644   -0.3117    0.4090 C   0  0  0  0  0  0  0  0  0  0  0  0
    3.0576    0.1959    1.2813 O   0  0  0  0  0  0  0  0  0  0  0  0
    2.7726   -1.6465   -0.1945 C   0  0  0  0  0  0  0  0  0  0  0  0
    4.0233   -2.2706    0.3489 C   0  0  0  0  0  0  0  0  0  0  0  0
    2.0860   -2.1483   -1.0754 O   0  0  0  0  0  0  0  0  0  0  0  0
    0.9195    1.2525    0.3900 H   0  0  0  0  0  0  0  0  0  0  0  0
    0.2590   -0.3628    0.0610 H   0  0  0  0  0  0  0  0  0  0  0  0
    1.2107    0.5012   -1.1926 H   0  0  0  0  0  0  0  0  0  0  0  0
    3.9078   -2.4625    1.4185 H   0  0  0  0  0  0  0  0  0  0  0  0
    4.8758   -1.6109    0.1689 H   0  0  0  0  0  0  0  0  0  0  0  0
    4.2046   -3.2223   -0.1587 H   0  0  0  0  0  0  0  0  0  0  0  0
  1  2  1  0  0  0  0
  1  7  1  0  0  0  0
  1  8  1  0  0  0  0
  1  9  1  0  0  0  0
  2  3  2  0  0  0  0
  2  4  1  0  0  0  0
  4  5  1  0  0  0  0
  4  6  2  0  0  0  0
  5 10  1  0  0  0  0
  5 11  1  0  0  0  0
  5 12  1  0  0  0  0
M  END
$$$$
