CHEBI:17056
 OpenBabel04242415473D

 17 16  0  0  0  0  0  0  0  0999 V2000
    4.0779    1.1742    0.2484 C   0  0  0  0  0  0  0  0  0  0  0  0
    2.9788    0.8286    0.9313 C   0  0  0  0  0  0  0  0  0  0  0  0
    2.9237   -0.4204    1.5299 O   0  0  0  0  0  0  0  0  0  0  0  0
    1.5797   -1.1382    2.0912 P   0  0  0  0  0  0  0  0  0  0  0  0
    0.4105   -0.9501    1.1602 O   0  0  0  0  0  0  0  0  0  0  0  0
    2.0527   -2.6859    1.9870 O   0  0  0  0  0  0  0  0  0  0  0  0
    1.3180   -0.6758    3.8480 C   0  0  0  0  0  0  0  0  0  0  0  0
    1.6443   -1.4782    4.7172 O   0  0  0  0  0  0  0  0  0  0  0  0
    0.7684    0.5316    4.1878 O   0  0  0  0  0  0  0  0  0  0  0  0
    1.8400    1.7723    1.0789 C   0  0  0  0  0  0  0  0  0  0  0  0
    1.0264    1.7225    1.9893 O   0  0  0  0  0  0  0  0  0  0  0  0
    1.7710    2.6987    0.1116 O   0  0  0  0  0  0  0  0  0  0  0  0
    4.9103    0.4845    0.1535 H   0  0  0  0  0  0  0  0  0  0  0  0
    4.1790    2.1412   -0.2347 H   0  0  0  0  0  0  0  0  0  0  0  0
    2.0068   -3.0077    1.0686 H   0  0  0  0  0  0  0  0  0  0  0  0
    0.5996    1.0764    3.3770 H   0  0  0  0  0  0  0  0  0  0  0  0
    0.9620    3.2183    0.2993 H   0  0  0  0  0  0  0  0  0  0  0  0
  1  2  2  0  0  0  0
  1 13  1  0  0  0  0
  1 14  1  0  0  0  0
  2  3  1  0  0  0  0
  2 10  1  0  0  0  0
  3  4  1  0  0  0  0
  4  5  2  0  0  0  0
  4  6  1  0  0  0  0
  4  7  1  0  0  0  0
  6 15  1  0  0  0  0
  7  8  2  0  0  0  0
  7  9  1  0  0  0  0
  9 16  1  0  0  0  0
 10 11  2  0  0  0  0
 10 12  1  0  0  0  0
 12 17  1  0  0  0  0
M  END
$$$$
