CHEBI:15406
 OpenBabel04242411493D

 27 27  0  0  1  0  0  0  0  0999 V2000
    5.5146    0.0080   -0.5239 C   0  0  0  0  0  0  0  0  0  0  0  0
    4.9527   -1.1906   -0.2820 C   0  0  0  0  0  0  0  0  0  0  0  0
    5.8241   -2.3907   -0.0226 C   0  0  0  0  0  0  0  0  0  0  0  0
    3.4270   -1.3339   -0.2381 C   0  0  1  0  0  0  0  0  0  0  0  0
    2.8374   -1.7759   -1.5912 C   0  0  0  0  0  0  0  0  0  0  0  0
    3.0098   -3.2667   -1.8898 C   0  0  0  0  0  0  0  0  0  0  0  0
    2.7948   -4.1594   -0.6929 C   0  0  0  0  0  0  0  0  0  0  0  0
    2.6744   -5.6277   -0.9833 C   0  0  0  0  0  0  0  0  0  0  0  0
    2.7239   -3.6725    0.5591 C   0  0  0  0  0  0  0  0  0  0  0  0
    2.8809   -2.2213    0.9123 C   0  0  2  0  0  0  0  0  0  0  0  0
    1.5871   -1.7578    1.3075 O   0  0  0  0  0  0  0  0  0  0  0  0
    6.5924    0.1396   -0.5497 H   0  0  0  0  0  0  0  0  0  0  0  0
    4.9131    0.8940   -0.7058 H   0  0  0  0  0  0  0  0  0  0  0  0
    6.8891   -2.1365   -0.0699 H   0  0  0  0  0  0  0  0  0  0  0  0
    5.6534   -3.1737   -0.7642 H   0  0  0  0  0  0  0  0  0  0  0  0
    5.6408   -2.8008    0.9747 H   0  0  0  0  0  0  0  0  0  0  0  0
    3.0258   -0.3239   -0.0610 H   0  0  0  0  0  0  0  0  0  0  0  0
    3.2638   -1.1871   -2.4131 H   0  0  0  0  0  0  0  0  0  0  0  0
    1.7621   -1.5493   -1.5883 H   0  0  0  0  0  0  0  0  0  0  0  0
    4.0102   -3.4506   -2.2975 H   0  0  0  0  0  0  0  0  0  0  0  0
    2.2990   -3.5388   -2.6801 H   0  0  0  0  0  0  0  0  0  0  0  0
    1.8200   -5.8164   -1.6412 H   0  0  0  0  0  0  0  0  0  0  0  0
    2.5311   -6.2176   -0.0720 H   0  0  0  0  0  0  0  0  0  0  0  0
    3.5816   -5.9910   -1.4769 H   0  0  0  0  0  0  0  0  0  0  0  0
    2.5548   -4.3433    1.3986 H   0  0  0  0  0  0  0  0  0  0  0  0
    3.5231   -2.1262    1.7946 H   0  0  0  0  0  0  0  0  0  0  0  0
    0.9618   -2.0416    0.6189 H   0  0  0  0  0  0  0  0  0  0  0  0
  1  2  2  0  0  0  0
  1 12  1  0  0  0  0
  1 13  1  0  0  0  0
  2  3  1  0  0  0  0
  3 14  1  0  0  0  0
  3 15  1  0  0  0  0
  3 16  1  0  0  0  0
  4  5  1  0  0  0  0
  4 10  1  0  0  0  0
  4  2  1  0  0  0  0
  4 17  1  1  0  0  0
  5  6  1  0  0  0  0
  5 18  1  0  0  0  0
  5 19  1  0  0  0  0
  6  7  1  0  0  0  0
  6 20  1  0  0  0  0
  6 21  1  0  0  0  0
  7  8  1  0  0  0  0
  7  9  2  0  0  0  0
  8 22  1  0  0  0  0
  8 23  1  0  0  0  0
  8 24  1  0  0  0  0
  9 10  1  0  0  0  0
  9 25  1  0  0  0  0
 10 11  1  0  0  0  0
 10 26  1  1  0  0  0
 11 27  1  0  0  0  0
M  END
$$$$
