CHEBI:15868
 OpenBabel04242413233D

 51 52  0  0  1  0  0  0  0  0999 V2000
    5.7049  -10.6599   -2.4585 C   0  0  0  0  0  0  0  0  0  0  0  0
    5.6999   -9.2065   -2.3743 N   0  0  0  0  0  0  0  0  0  0  0  0
    6.2559   -8.7455   -1.0984 C   0  0  0  0  0  0  0  0  0  0  0  0
    6.2627   -7.2173   -1.0315 C   0  0  0  0  0  0  0  0  0  0  0  0
    6.8156   -6.7881    0.2048 O   0  0  0  0  0  0  0  0  0  0  0  0
    6.8086   -5.1978    0.4496 P   0  0  0  0  0  0  0  0  0  0  0  0
    7.1756   -4.3799   -0.7424 O   0  0  0  0  0  0  0  0  0  0  0  0
    5.3075   -4.9320    0.9477 O   0  0  0  0  0  0  0  0  0  0  0  0
    7.6670   -4.9925    1.7687 O   0  0  0  0  0  0  0  0  0  0  0  0
    8.6852   -3.7771    1.8674 P   0  0  0  0  0  0  0  0  0  0  0  0
    8.0899   -2.4255    1.6447 O   0  0  0  0  0  0  0  0  0  0  0  0
    9.3368   -3.9655    3.3168 O   0  0  0  0  0  0  0  0  0  0  0  0
    9.8846   -4.1842    0.8874 O   0  0  0  0  0  0  0  0  0  0  0  0
   10.9570   -3.2760    0.7139 C   0  0  0  0  0  0  0  0  0  0  0  0
   12.2267   -4.0374    0.3176 C   0  0  1  0  0  0  0  0  0  0  0  0
   12.7806   -4.6743    1.5041 O   0  0  0  0  0  0  0  0  0  0  0  0
   12.8977   -6.0779    1.2301 C   0  0  1  0  0  0  0  0  0  0  0  0
   12.7781   -6.8439    2.4712 N   0  0  0  0  0  0  0  0  0  0  0  0
   13.8534   -7.5928    2.9035 C   0  0  0  0  0  0  0  0  0  0  0  0
   13.8155   -8.2600    4.0560 C   0  0  0  0  0  0  0  0  0  0  0  0
   12.5690   -8.1312    4.8318 C   0  0  0  0  0  0  0  0  0  0  0  0
   12.4457   -8.7613    6.0371 N   0  0  0  0  0  0  0  0  0  0  0  0
   11.5526   -7.4406    4.4257 N   0  0  0  0  0  0  0  0  0  0  0  0
   11.6132   -6.7593    3.2356 C   0  0  0  0  0  0  0  0  0  0  0  0
   10.6400   -6.1026    2.8751 O   0  0  0  0  0  0  0  0  0  0  0  0
   11.8773   -6.4045    0.1332 C   0  0  2  0  0  0  0  0  0  0  0  0
   12.2141   -7.5674   -0.6308 O   0  0  0  0  0  0  0  0  0  0  0  0
   11.9852   -5.1453   -0.7165 C   0  0  2  0  0  0  0  0  0  0  0  0
   13.1319   -5.2656   -1.5770 O   0  0  0  0  0  0  0  0  0  0  0  0
    5.2920  -10.9683   -3.4243 H   0  0  0  0  0  0  0  0  0  0  0  0
    5.0920  -11.1099   -1.6711 H   0  0  0  0  0  0  0  0  0  0  0  0
    6.7228  -11.0574   -2.3946 H   0  0  0  0  0  0  0  0  0  0  0  0
    4.7415   -8.8696   -2.4700 H   0  0  0  0  0  0  0  0  0  0  0  0
    7.2836   -9.1093   -0.9744 H   0  0  0  0  0  0  0  0  0  0  0  0
    5.6764   -9.1412   -0.2553 H   0  0  0  0  0  0  0  0  0  0  0  0
    5.2428   -6.8273   -1.1225 H   0  0  0  0  0  0  0  0  0  0  0  0
    6.8680   -6.8102   -1.8493 H   0  0  0  0  0  0  0  0  0  0  0  0
    5.1100   -3.9765    0.9647 H   0  0  0  0  0  0  0  0  0  0  0  0
    9.7967   -4.8378    3.3600 H   0  0  0  0  0  0  0  0  0  0  0  0
   11.1257   -2.7151    1.6394 H   0  0  0  0  0  0  0  0  0  0  0  0
   10.6754   -2.5776   -0.0802 H   0  0  0  0  0  0  0  0  0  0  0  0
   12.9798   -3.3206   -0.0282 H   0  0  0  0  0  0  0  0  0  0  0  0
   13.9084   -6.2364    0.8293 H   0  0  0  0  0  0  0  0  0  0  0  0
   14.7429   -7.6128    2.2805 H   0  0  0  0  0  0  0  0  0  0  0  0
   14.6397   -8.8431    4.4394 H   0  0  0  0  0  0  0  0  0  0  0  0
   12.9260   -9.6425    6.1643 H   0  0  0  0  0  0  0  0  0  0  0  0
   11.4898   -8.7645    6.3814 H   0  0  0  0  0  0  0  0  0  0  0  0
   10.8585   -6.5223    0.5097 H   0  0  0  0  0  0  0  0  0  0  0  0
   12.0526   -8.3354   -0.0524 H   0  0  0  0  0  0  0  0  0  0  0  0
   11.1196   -4.9769   -1.3638 H   0  0  0  0  0  0  0  0  0  0  0  0
   13.0658   -6.1659   -1.9585 H   0  0  0  0  0  0  0  0  0  0  0  0
  1  2  1  0  0  0  0
  1 30  1  0  0  0  0
  1 31  1  0  0  0  0
  1 32  1  0  0  0  0
  2  3  1  0  0  0  0
  2 33  1  0  0  0  0
  3  4  1  0  0  0  0
  3 34  1  0  0  0  0
  3 35  1  0  0  0  0
  4  5  1  0  0  0  0
  4 36  1  0  0  0  0
  4 37  1  0  0  0  0
  5  6  1  0  0  0  0
  6  7  2  0  0  0  0
  6  8  1  0  0  0  0
  6  9  1  0  0  0  0
  8 38  1  0  0  0  0
  9 10  1  0  0  0  0
 10 11  2  0  0  0  0
 10 12  1  0  0  0  0
 10 13  1  0  0  0  0
 12 39  1  0  0  0  0
 13 14  1  0  0  0  0
 14 15  1  0  0  0  0
 14 40  1  0  0  0  0
 14 41  1  0  0  0  0
 15 16  1  0  0  0  0
 15 28  1  0  0  0  0
 15 42  1  6  0  0  0
 16 17  1  0  0  0  0
 17 18  1  0  0  0  0
 17 26  1  0  0  0  0
 17 43  1  6  0  0  0
 18 19  1  0  0  0  0
 18 24  1  0  0  0  0
 19 20  2  0  0  0  0
 19 44  1  0  0  0  0
 20 21  1  0  0  0  0
 20 45  1  0  0  0  0
 21 22  1  0  0  0  0
 21 23  2  0  0  0  0
 22 46  1  0  0  0  0
 22 47  1  0  0  0  0
 23 24  1  0  0  0  0
 24 25  2  0  0  0  0
 26 27  1  0  0  0  0
 26 28  1  0  0  0  0
 26 48  1  1  0  0  0
 27 49  1  0  0  0  0
 28 29  1  0  0  0  0
 28 50  1  6  0  0  0
 29 51  1  0  0  0  0
M  END
$$$$
