CHEBI:18385
 OpenBabel04252409313D

 35 36  0  0  0  0  0  0  0  0999 V2000
   -0.3974    1.5797    5.2991 C   0  0  0  0  0  0  0  0  0  0  0  0
    0.5550    0.9107    4.3582 C   0  0  0  0  0  0  0  0  0  0  0  0
    1.7071    0.4362    4.8582 N   0  0  0  0  0  0  0  0  0  0  0  0
    2.5570   -0.1277    3.9862 C   0  0  0  0  0  0  0  0  0  0  0  0
    2.3078   -0.2362    2.6337 C   0  0  0  0  0  0  0  0  0  0  0  0
    3.3259   -0.7778    1.6831 C   0  0  0  0  0  0  0  0  0  0  0  0
    4.2649    0.2802    1.2705 N   0  3  0  0  0  0  0  0  0  0  0  0
    3.8806    1.2249    0.4244 C   0  0  0  0  0  0  0  0  0  0  0  0
    5.1506    2.3115    0.0768 S   0  0  0  0  0  0  0  0  0  0  0  0
    6.2433    1.4406    1.0729 C   0  0  0  0  0  0  0  0  0  0  0  0
    7.6791    1.8780    1.1872 C   0  0  0  0  0  0  0  0  0  0  0  0
    8.5825    1.1220    0.2122 C   0  0  0  0  0  0  0  0  0  0  0  0
    8.5767   -0.2699    0.5245 O   0  0  0  0  0  0  0  0  0  0  0  0
    5.6020    0.3617    1.6579 C   0  0  0  0  0  0  0  0  0  0  0  0
    6.1801   -0.6582    2.5694 C   0  0  0  0  0  0  0  0  0  0  0  0
    1.0911    0.2734    2.2247 C   0  0  0  0  0  0  0  0  0  0  0  0
    0.6804    0.2131    0.8909 N   0  0  0  0  0  0  0  0  0  0  0  0
    0.2256    0.8587    3.0556 N   0  0  0  0  0  0  0  0  0  0  0  0
   -1.4258    1.4867    4.9371 H   0  0  0  0  0  0  0  0  0  0  0  0
   -0.1473    2.6411    5.3834 H   0  0  0  0  0  0  0  0  0  0  0  0
   -0.3407    1.1229    6.2919 H   0  0  0  0  0  0  0  0  0  0  0  0
    3.4740   -0.4897    4.4426 H   0  0  0  0  0  0  0  0  0  0  0  0
    2.8615   -1.1988    0.7826 H   0  0  0  0  0  0  0  0  0  0  0  0
    3.8565   -1.6166    2.1444 H   0  0  0  0  0  0  0  0  0  0  0  0
    2.8911    1.3209   -0.0054 H   0  0  0  0  0  0  0  0  0  0  0  0
    8.0199    1.7045    2.2150 H   0  0  0  0  0  0  0  0  0  0  0  0
    7.7667    2.9553    1.0026 H   0  0  0  0  0  0  0  0  0  0  0  0
    9.6102    1.4889    0.2989 H   0  0  0  0  0  0  0  0  0  0  0  0
    8.2489    1.2451   -0.8233 H   0  0  0  0  0  0  0  0  0  0  0  0
    9.2796   -0.6785   -0.0162 H   0  0  0  0  0  0  0  0  0  0  0  0
    7.1996   -0.4027    2.8721 H   0  0  0  0  0  0  0  0  0  0  0  0
    6.2158   -1.6352    2.0776 H   0  0  0  0  0  0  0  0  0  0  0  0
    5.5935   -0.7436    3.4874 H   0  0  0  0  0  0  0  0  0  0  0  0
    0.4766   -0.7463    0.6149 H   0  0  0  0  0  0  0  0  0  0  0  0
   -0.2135    0.7177    0.8678 H   0  0  0  0  0  0  0  0  0  0  0  0
  1  2  1  0  0  0  0
  1 19  1  0  0  0  0
  1 20  1  0  0  0  0
  1 21  1  0  0  0  0
  2  3  1  0  0  0  0
  2 18  2  0  0  0  0
  3  4  2  0  0  0  0
  4  5  1  0  0  0  0
  4 22  1  0  0  0  0
  5  6  1  0  0  0  0
  5 16  2  0  0  0  0
  6  7  1  0  0  0  0
  6 23  1  0  0  0  0
  6 24  1  0  0  0  0
  7  8  2  0  0  0  0
  7 14  1  0  0  0  0
  8  9  1  0  0  0  0
  8 25  1  0  0  0  0
  9 10  1  0  0  0  0
 10 11  1  0  0  0  0
 10 14  2  0  0  0  0
 11 12  1  0  0  0  0
 11 26  1  0  0  0  0
 11 27  1  0  0  0  0
 12 13  1  0  0  0  0
 12 28  1  0  0  0  0
 12 29  1  0  0  0  0
 13 30  1  0  0  0  0
 14 15  1  0  0  0  0
 15 31  1  0  0  0  0
 15 32  1  0  0  0  0
 15 33  1  0  0  0  0
 16 17  1  0  0  0  0
 16 18  1  0  0  0  0
 17 34  1  0  0  0  0
 17 35  1  0  0  0  0
M  CHG  1   7   1
M  END
$$$$
