CHEBI:15670
 OpenBabel04242413023D

 15 14  0  0  0  0  0  0  0  0999 V2000
    1.3389   -0.2246   -0.9355 O   0  0  0  0  0  0  0  0  0  0  0  0
    2.3462   -0.1809   -0.2506 C   0  0  0  0  0  0  0  0  0  0  0  0
    3.0223   -1.2680    0.1645 O   0  0  0  0  0  0  0  0  0  0  0  0
    2.9010    1.0904    0.2495 C   0  0  0  0  0  0  0  0  0  0  0  0
    4.2174    1.3275    0.3681 C   0  0  0  0  0  0  0  0  0  0  0  0
    4.7949    2.6155    0.8861 C   0  0  0  0  0  0  0  0  0  0  0  0
    5.5894    2.3751    2.1615 C   0  0  0  0  0  0  0  0  0  0  0  0
    5.7604    1.2859    2.6892 O   0  0  0  0  0  0  0  0  0  0  0  0
    6.1136    3.5139    2.6720 O   0  0  0  0  0  0  0  0  0  0  0  0
    3.6967   -1.0795    0.8453 H   0  0  0  0  0  0  0  0  0  0  0  0
    2.1544    1.8488    0.4607 H   0  0  0  0  0  0  0  0  0  0  0  0
    4.9452    0.5686    0.0828 H   0  0  0  0  0  0  0  0  0  0  0  0
    4.0033    3.3405    1.1046 H   0  0  0  0  0  0  0  0  0  0  0  0
    5.4674    3.0340    0.1302 H   0  0  0  0  0  0  0  0  0  0  0  0
    5.9104    4.3197    2.1597 H   0  0  0  0  0  0  0  0  0  0  0  0
  1  2  2  0  0  0  0
  2  3  1  0  0  0  0
  2  4  1  0  0  0  0
  3 10  1  0  0  0  0
  4  5  2  0  0  0  0
  4 11  1  0  0  0  0
  5  6  1  0  0  0  0
  5 12  1  0  0  0  0
  6  7  1  0  0  0  0
  6 13  1  0  0  0  0
  6 14  1  0  0  0  0
  7  8  2  0  0  0  0
  7  9  1  0  0  0  0
  9 15  1  0  0  0  0
M  END
$$$$
