CHEBI:16454
 OpenBabel04242414273D

 31 30  0  0  0  0  0  0  0  0999 V2000
    1.4940   -3.1762   -0.8807 C   0  0  0  0  0  0  0  0  0  0  0  0
    0.8296   -1.7973   -0.7231 C   0  0  0  0  0  0  0  0  0  0  0  0
    0.1297   -1.4598   -2.0611 C   0  0  0  0  0  0  0  0  0  0  0  0
   -0.2380   -1.8939    0.3943 C   0  0  0  0  0  0  0  0  0  0  0  0
   -1.0510   -0.7267    0.4818 O   0  0  0  0  0  0  0  0  0  0  0  0
    1.8717   -0.6808   -0.4187 C   0  0  0  0  0  0  0  0  0  0  0  0
    1.1826    0.5725   -0.2170 O   0  0  0  0  0  0  0  0  0  0  0  0
    2.7652   -0.9398    0.8162 C   0  0  0  0  0  0  0  0  0  0  0  0
    2.5156   -0.4100    1.8988 O   0  0  0  0  0  0  0  0  0  0  0  0
    3.8805   -1.6861    0.5694 N   0  0  0  0  0  0  0  0  0  0  0  0
    4.8253   -2.1454    1.5659 C   0  0  0  0  0  0  0  0  0  0  0  0
    4.7706   -3.6547    1.7202 C   0  0  0  0  0  0  0  0  0  0  0  0
    5.0265   -4.4285    0.4246 C   0  0  0  0  0  0  0  0  0  0  0  0
    4.9818   -3.7550   -0.6474 O   0  0  0  0  0  0  0  0  0  0  0  0
    5.2123   -5.6671    0.5811 O   0  5  0  0  0  0  0  0  0  0  0  0
    0.7678   -3.9266   -1.2154 H   0  0  0  0  0  0  0  0  0  0  0  0
    1.9079   -3.5373    0.0660 H   0  0  0  0  0  0  0  0  0  0  0  0
    2.2977   -3.1462   -1.6238 H   0  0  0  0  0  0  0  0  0  0  0  0
   -0.6373   -2.2043   -2.3036 H   0  0  0  0  0  0  0  0  0  0  0  0
    0.8508   -1.4468   -2.8865 H   0  0  0  0  0  0  0  0  0  0  0  0
   -0.3594   -0.4803   -2.0374 H   0  0  0  0  0  0  0  0  0  0  0  0
    0.2231   -2.0611    1.3733 H   0  0  0  0  0  0  0  0  0  0  0  0
   -0.9139   -2.7362    0.2080 H   0  0  0  0  0  0  0  0  0  0  0  0
   -0.4420    0.0336    0.3661 H   0  0  0  0  0  0  0  0  0  0  0  0
    2.5330   -0.5338   -1.2816 H   0  0  0  0  0  0  0  0  0  0  0  0
    1.7123    1.0510    0.4543 H   0  0  0  0  0  0  0  0  0  0  0  0
    4.0208   -2.1611   -0.3296 H   0  0  0  0  0  0  0  0  0  0  0  0
    4.6225   -1.6584    2.5250 H   0  0  0  0  0  0  0  0  0  0  0  0
    5.8187   -1.8314    1.2272 H   0  0  0  0  0  0  0  0  0  0  0  0
    3.7850   -3.9554    2.0955 H   0  0  0  0  0  0  0  0  0  0  0  0
    5.5164   -3.9645    2.4620 H   0  0  0  0  0  0  0  0  0  0  0  0
  1  2  1  0  0  0  0
  1 16  1  0  0  0  0
  1 17  1  0  0  0  0
  1 18  1  0  0  0  0
  2  3  1  0  0  0  0
  2  4  1  0  0  0  0
  2  6  1  0  0  0  0
  3 19  1  0  0  0  0
  3 20  1  0  0  0  0
  3 21  1  0  0  0  0
  4  5  1  0  0  0  0
  4 22  1  0  0  0  0
  4 23  1  0  0  0  0
  5 24  1  0  0  0  0
  6  7  1  0  0  0  0
  6  8  1  0  0  0  0
  6 25  1  0  0  0  0
  7 26  1  0  0  0  0
  8  9  2  0  0  0  0
  8 10  1  0  0  0  0
 10 11  1  0  0  0  0
 10 27  1  0  0  0  0
 11 12  1  0  0  0  0
 11 28  1  0  0  0  0
 11 29  1  0  0  0  0
 12 13  1  0  0  0  0
 12 30  1  0  0  0  0
 12 31  1  0  0  0  0
 13 14  2  0  0  0  0
 13 15  1  0  0  0  0
M  CHG  1  15  -1
M  END
$$$$
