CHEBI:16057
 OpenBabel04242413423D

 26 25  0  0  0  0  0  0  0  0999 V2000
    2.4583    7.3565   -2.0331 C   0  0  0  0  0  0  0  0  0  0  0  0
    1.9814    6.1945   -2.8653 C   0  0  0  0  0  0  0  0  0  0  0  0
    1.1714    6.5877   -4.0691 C   0  0  0  0  0  0  0  0  0  0  0  0
    2.2868    4.9302   -2.5125 C   0  0  0  0  0  0  0  0  0  0  0  0
    1.8847    3.6534   -3.1812 C   0  0  0  0  0  0  0  0  0  0  0  0
    3.0660    2.9592   -3.5251 O   0  0  0  0  0  0  0  0  0  0  0  0
    2.8688    1.5656   -4.2858 P   0  0  0  0  0  0  0  0  0  0  0  0
    1.6960    0.7416   -3.8716 O   0  0  0  0  0  0  0  0  0  0  0  0
    2.7459    2.0193   -5.8213 O   0  0  0  0  0  0  0  0  0  0  0  0
    4.2901    0.8622   -4.2512 O   0  0  0  0  0  0  0  0  0  0  0  0
    4.8934    0.2638   -2.9166 P   0  0  0  0  0  0  0  0  0  0  0  0
    4.8759    1.1106   -1.6944 O   0  0  0  0  0  0  0  0  0  0  0  0
    4.2059   -1.1617   -2.7282 O   0  0  0  0  0  0  0  0  0  0  0  0
    6.3762   -0.1658   -3.3341 O   0  0  0  0  0  0  0  0  0  0  0  0
    3.1267    7.9946   -2.6204 H   0  0  0  0  0  0  0  0  0  0  0  0
    3.0045    7.0334   -1.1405 H   0  0  0  0  0  0  0  0  0  0  0  0
    1.6061    7.9577   -1.6994 H   0  0  0  0  0  0  0  0  0  0  0  0
    1.6994    7.3559   -4.6443 H   0  0  0  0  0  0  0  0  0  0  0  0
    0.2059    6.9965   -3.7539 H   0  0  0  0  0  0  0  0  0  0  0  0
    0.9783    5.7590   -4.7533 H   0  0  0  0  0  0  0  0  0  0  0  0
    2.8924    4.7743   -1.6194 H   0  0  0  0  0  0  0  0  0  0  0  0
    1.2745    3.8019   -4.0741 H   0  0  0  0  0  0  0  0  0  0  0  0
    1.3095    3.0508   -2.4700 H   0  0  0  0  0  0  0  0  0  0  0  0
    2.3517    1.3083   -6.3588 H   0  0  0  0  0  0  0  0  0  0  0  0
    4.4224   -1.5480   -1.8606 H   0  0  0  0  0  0  0  0  0  0  0  0
    6.9957    0.5825   -3.2562 H   0  0  0  0  0  0  0  0  0  0  0  0
  1  2  1  0  0  0  0
  1 15  1  0  0  0  0
  1 16  1  0  0  0  0
  1 17  1  0  0  0  0
  2  3  1  0  0  0  0
  2  4  2  0  0  0  0
  3 18  1  0  0  0  0
  3 19  1  0  0  0  0
  3 20  1  0  0  0  0
  4  5  1  0  0  0  0
  4 21  1  0  0  0  0
  5  6  1  0  0  0  0
  5 22  1  0  0  0  0
  5 23  1  0  0  0  0
  6  7  1  0  0  0  0
  7  8  2  0  0  0  0
  7  9  1  0  0  0  0
  7 10  1  0  0  0  0
  9 24  1  0  0  0  0
 10 11  1  0  0  0  0
 11 12  2  0  0  0  0
 11 13  1  0  0  0  0
 11 14  1  0  0  0  0
 13 25  1  0  0  0  0
 14 26  1  0  0  0  0
M  END
$$$$
