CHEBI:15732
 OpenBabel04242413103D

 13 12  0  0  0  0  0  0  0  0999 V2000
    1.0457   -1.1607   -0.8632 O   0  0  0  0  0  0  0  0  0  0  0  0
    1.9042   -0.3479   -0.5431 C   0  0  0  0  0  0  0  0  0  0  0  0
    2.0558    0.8126   -1.2173 O   0  0  0  0  0  0  0  0  0  0  0  0
    2.7556   -0.5205    0.6696 C   0  0  0  0  0  0  0  0  0  0  0  0
    4.3742    0.1259    0.4670 P   0  0  0  0  0  0  0  0  0  0  0  0
    4.4275    1.5033   -0.1115 O   0  0  0  0  0  0  0  0  0  0  0  0
    5.0970    0.0228    1.8893 O   0  0  0  0  0  0  0  0  0  0  0  0
    5.2074   -0.9325   -0.3911 O   0  0  0  0  0  0  0  0  0  0  0  0
    2.7648    1.4314   -0.9159 H   0  0  0  0  0  0  0  0  0  0  0  0
    2.8102   -1.5866    0.9125 H   0  0  0  0  0  0  0  0  0  0  0  0
    2.2448   -0.0152    1.4958 H   0  0  0  0  0  0  0  0  0  0  0  0
    5.9410    0.5088    1.9478 H   0  0  0  0  0  0  0  0  0  0  0  0
    6.0663   -0.6066   -0.7199 H   0  0  0  0  0  0  0  0  0  0  0  0
  1  2  2  0  0  0  0
  2  3  1  0  0  0  0
  2  4  1  0  0  0  0
  3  9  1  0  0  0  0
  4  5  1  0  0  0  0
  4 10  1  0  0  0  0
  4 11  1  0  0  0  0
  5  6  2  0  0  0  0
  5  7  1  0  0  0  0
  5  8  1  0  0  0  0
  7 12  1  0  0  0  0
  8 13  1  0  0  0  0
M  END
$$$$
