CHEBI:15624
 OpenBabel04242412553D

 20 19  0  0  1  0  0  0  0  0999 V2000
    1.6448    2.8058   -1.7242 O   0  0  0  0  0  0  0  0  0  0  0  0
    2.3379    2.3908   -0.7974 C   0  0  0  0  0  0  0  0  0  0  0  0
    2.9468    0.9998   -0.8015 C   0  0  1  0  0  0  0  0  0  0  0  0
    2.6353    0.2821   -1.9968 O   0  0  0  0  0  0  0  0  0  0  0  0
    4.4754    1.0284   -0.6251 C   0  0  1  0  0  0  0  0  0  0  0  0
    4.9144   -0.3241   -0.4042 O   0  0  0  0  0  0  0  0  0  0  0  0
    5.2537    1.5610   -1.8346 C   0  0  0  0  0  0  0  0  0  0  0  0
    5.2260    3.0615   -1.9141 C   0  0  0  0  0  0  0  0  0  0  0  0
    4.8137    3.8155   -1.0358 O   0  0  0  0  0  0  0  0  0  0  0  0
    5.7689    3.6954   -3.1921 C   0  0  0  0  0  0  0  0  0  0  0  0
    6.2955    3.0581   -4.0797 O   0  0  0  0  0  0  0  0  0  0  0  0
    5.5799    5.0278   -3.1758 O   0  0  0  0  0  0  0  0  0  0  0  0
    2.5177    2.9982    0.1060 H   0  0  0  0  0  0  0  0  0  0  0  0
    2.4893    0.4464    0.0263 H   0  0  0  0  0  0  0  0  0  0  0  0
    1.7761    0.6310   -2.3124 H   0  0  0  0  0  0  0  0  0  0  0  0
    4.7375    1.5915    0.2778 H   0  0  0  0  0  0  0  0  0  0  0  0
    4.4932   -0.8656   -1.1033 H   0  0  0  0  0  0  0  0  0  0  0  0
    4.8636    1.1389   -2.7667 H   0  0  0  0  0  0  0  0  0  0  0  0
    6.3043    1.2548   -1.7597 H   0  0  0  0  0  0  0  0  0  0  0  0
    5.1354    5.2901   -2.3358 H   0  0  0  0  0  0  0  0  0  0  0  0
  1  2  2  0  0  0  0
  2  3  1  0  0  0  0
  2 13  1  0  0  0  0
  3  4  1  0  0  0  0
  3  5  1  0  0  0  0
  3 14  1  1  0  0  0
  4 15  1  0  0  0  0
  5  6  1  0  0  0  0
  5  7  1  0  0  0  0
  5 16  1  1  0  0  0
  6 17  1  0  0  0  0
  7  8  1  0  0  0  0
  7 18  1  0  0  0  0
  7 19  1  0  0  0  0
  8  9  2  0  0  0  0
  8 10  1  0  0  0  0
 10 11  2  0  0  0  0
 10 12  1  0  0  0  0
 12 20  1  0  0  0  0
M  END
$$$$
