CHEBI:17818
 OpenBabel04242417393D

 42 43  0  0  0  0  0  0  0  0999 V2000
   -0.6460    8.8349   -3.7563 C   0  0  0  0  0  0  0  0  0  0  0  0
    0.6301    8.8794   -3.1324 O   0  0  0  0  0  0  0  0  0  0  0  0
    0.7433    8.2907   -1.9014 C   0  0  0  0  0  0  0  0  0  0  0  0
    2.0606    7.9397   -1.5749 C   0  0  0  0  0  0  0  0  0  0  0  0
    2.3717    7.3127   -0.3608 C   0  0  0  0  0  0  0  0  0  0  0  0
    3.7476    6.9340   -0.0165 C   0  0  0  0  0  0  0  0  0  0  0  0
    4.5772    6.3425   -0.8898 C   0  0  0  0  0  0  0  0  0  0  0  0
    5.9629    5.9939   -0.4902 C   0  0  0  0  0  0  0  0  0  0  0  0
    6.4747    6.3885    0.5480 O   0  0  0  0  0  0  0  0  0  0  0  0
    6.5974    5.2089   -1.4213 N   0  0  0  0  0  0  0  0  0  0  0  0
    8.0096    4.8878   -1.3203 C   0  0  0  0  0  0  0  0  0  0  0  0
    8.9205    5.9941   -1.8700 C   0  0  0  0  0  0  0  0  0  0  0  0
    8.8308    6.1650   -3.3717 C   0  0  0  0  0  0  0  0  0  0  0  0
    7.7312    6.8145   -3.9523 C   0  0  0  0  0  0  0  0  0  0  0  0
    7.6443    6.9660   -5.3366 C   0  0  0  0  0  0  0  0  0  0  0  0
    8.6675    6.4908   -6.1458 C   0  0  0  0  0  0  0  0  0  0  0  0
    8.5506    6.6767   -7.4913 O   0  0  0  0  0  0  0  0  0  0  0  0
    9.7744    5.8556   -5.5933 C   0  0  0  0  0  0  0  0  0  0  0  0
    9.8520    5.6881   -4.2074 C   0  0  0  0  0  0  0  0  0  0  0  0
    1.3449    7.0808    0.5578 C   0  0  0  0  0  0  0  0  0  0  0  0
    0.0295    7.4450    0.2555 C   0  0  0  0  0  0  0  0  0  0  0  0
   -0.2703    8.0491   -0.9694 C   0  0  0  0  0  0  0  0  0  0  0  0
   -1.5637    8.4159   -1.2172 O   0  0  0  0  0  0  0  0  0  0  0  0
   -0.5011    9.0691   -4.8159 H   0  0  0  0  0  0  0  0  0  0  0  0
   -1.3085    9.6011   -3.3437 H   0  0  0  0  0  0  0  0  0  0  0  0
   -1.0933    7.8366   -3.7032 H   0  0  0  0  0  0  0  0  0  0  0  0
    2.8467    8.1677   -2.2916 H   0  0  0  0  0  0  0  0  0  0  0  0
    4.0672    7.1354    1.0043 H   0  0  0  0  0  0  0  0  0  0  0  0
    4.2684    6.1115   -1.9012 H   0  0  0  0  0  0  0  0  0  0  0  0
    6.1288    4.9660   -2.2837 H   0  0  0  0  0  0  0  0  0  0  0  0
    8.1658    3.9474   -1.8599 H   0  0  0  0  0  0  0  0  0  0  0  0
    8.2487    4.7165   -0.2646 H   0  0  0  0  0  0  0  0  0  0  0  0
    9.9568    5.7537   -1.6003 H   0  0  0  0  0  0  0  0  0  0  0  0
    8.6975    6.9549   -1.3899 H   0  0  0  0  0  0  0  0  0  0  0  0
    6.9378    7.2186   -3.3282 H   0  0  0  0  0  0  0  0  0  0  0  0
    6.7878    7.4654   -5.7803 H   0  0  0  0  0  0  0  0  0  0  0  0
    9.3615    6.3575   -7.9194 H   0  0  0  0  0  0  0  0  0  0  0  0
   10.5825    5.4894   -6.2186 H   0  0  0  0  0  0  0  0  0  0  0  0
   10.7236    5.1932   -3.7843 H   0  0  0  0  0  0  0  0  0  0  0  0
    1.5580    6.6087    1.5147 H   0  0  0  0  0  0  0  0  0  0  0  0
   -0.7468    7.2502    0.9899 H   0  0  0  0  0  0  0  0  0  0  0  0
   -2.0972    8.2567   -0.4219 H   0  0  0  0  0  0  0  0  0  0  0  0
  1  2  1  0  0  0  0
  1 24  1  0  0  0  0
  1 25  1  0  0  0  0
  1 26  1  0  0  0  0
  2  3  1  0  0  0  0
  3  4  1  0  0  0  0
  3 22  2  0  0  0  0
  4  5  2  0  0  0  0
  4 27  1  0  0  0  0
  5  6  1  0  0  0  0
  5 20  1  0  0  0  0
  6  7  2  0  0  0  0
  6 28  1  0  0  0  0
  7  8  1  0  0  0  0
  7 29  1  0  0  0  0
  8  9  2  0  0  0  0
  8 10  1  0  0  0  0
 10 11  1  0  0  0  0
 10 30  1  0  0  0  0
 11 12  1  0  0  0  0
 11 31  1  0  0  0  0
 11 32  1  0  0  0  0
 12 13  1  0  0  0  0
 12 33  1  0  0  0  0
 12 34  1  0  0  0  0
 13 14  1  0  0  0  0
 13 19  2  0  0  0  0
 14 15  2  0  0  0  0
 14 35  1  0  0  0  0
 15 16  1  0  0  0  0
 15 36  1  0  0  0  0
 16 17  1  0  0  0  0
 16 18  2  0  0  0  0
 17 37  1  0  0  0  0
 18 19  1  0  0  0  0
 18 38  1  0  0  0  0
 19 39  1  0  0  0  0
 20 21  2  0  0  0  0
 20 40  1  0  0  0  0
 21 22  1  0  0  0  0
 21 41  1  0  0  0  0
 22 23  1  0  0  0  0
 23 42  1  0  0  0  0
M  END
$$$$
