CHEBI:17968
 OpenBabel04242423203D

 13 12  0  0  0  0  0  0  0  0999 V2000
    0.9561    0.8194    0.4249 C   0  0  0  0  0  0  0  0  0  0  0  0
    2.2657    0.1171    0.1031 C   0  0  0  0  0  0  0  0  0  0  0  0
    2.0849   -0.9352   -0.9848 C   0  0  0  0  0  0  0  0  0  0  0  0
    3.3570   -1.6928   -1.3788 C   0  0  0  0  0  0  0  0  0  0  0  0
    3.1807   -2.5606   -2.2826 O   0  0  0  0  0  0  0  0  0  0  0  0
    4.4162   -1.3748   -0.7723 O   0  5  0  0  0  0  0  0  0  0  0  0
    1.1101    1.5679    1.2085 H   0  0  0  0  0  0  0  0  0  0  0  0
    0.2050    0.1062    0.7793 H   0  0  0  0  0  0  0  0  0  0  0  0
    0.5571    1.3292   -0.4578 H   0  0  0  0  0  0  0  0  0  0  0  0
    2.6561   -0.3504    1.0148 H   0  0  0  0  0  0  0  0  0  0  0  0
    3.0040    0.8625   -0.2154 H   0  0  0  0  0  0  0  0  0  0  0  0
    1.6886   -0.4598   -1.8908 H   0  0  0  0  0  0  0  0  0  0  0  0
    1.3459   -1.6768   -0.6565 H   0  0  0  0  0  0  0  0  0  0  0  0
  1  2  1  0  0  0  0
  1  7  1  0  0  0  0
  1  8  1  0  0  0  0
  1  9  1  0  0  0  0
  2  3  1  0  0  0  0
  2 10  1  0  0  0  0
  2 11  1  0  0  0  0
  3  4  1  0  0  0  0
  3 12  1  0  0  0  0
  3 13  1  0  0  0  0
  4  5  2  0  0  0  0
  4  6  1  0  0  0  0
M  CHG  1   6  -1
M  END
$$$$
