CHEBI:16183
 OpenBabel04242413593D

  5  4  0  0  0  0  0  0  0  0999 V2000
    0.9391   -0.0747    0.0267 C   0  0  0  0  0  0  0  0  0  0  0  0
    2.0313   -0.0747    0.0267 H   0  0  0  0  0  0  0  0  0  0  0  0
    0.5750    0.9155   -0.2559 H   0  0  0  0  0  0  0  0  0  0  0  0
    0.5750   -0.3251    1.0255 H   0  0  0  0  0  0  0  0  0  0  0  0
    0.5750   -0.8145   -0.6896 H   0  0  0  0  0  0  0  0  0  0  0  0
  1  2  1  0  0  0  0
  1  3  1  0  0  0  0
  1  4  1  0  0  0  0
  1  5  1  0  0  0  0
M  END
$$$$
