CHEBI:15647
 OpenBabel04242413003D

 56 55  0  0  1  0  0  0  0  0999 V2000
    0.8245   -2.1212   12.9749 C   0  0  0  0  0  0  0  0  0  0  0  0
    2.0002   -2.0089   12.0178 C   0  0  0  0  0  0  0  0  0  0  0  0
    1.6974   -2.7111   10.6986 C   0  0  0  0  0  0  0  0  0  0  0  0
    2.7814   -2.5482    9.6350 C   0  0  0  0  0  0  0  0  0  0  0  0
    4.0567   -3.3696    9.8339 C   0  0  0  0  0  0  0  0  0  0  0  0
    5.0166   -2.8204   10.8494 C   0  0  0  0  0  0  0  0  0  0  0  0
    6.1230   -3.4389   11.2946 C   0  0  0  0  0  0  0  0  0  0  0  0
    6.6288   -4.7953   10.8817 C   0  0  0  0  0  0  0  0  0  0  0  0
    7.8514   -4.7337    9.9409 C   0  0  1  0  0  0  0  0  0  0  0  0
    8.4166   -6.0413    9.8486 O   0  0  0  0  0  0  0  0  0  0  0  0
    7.4994   -4.2851    8.5466 C   0  0  0  0  0  0  0  0  0  0  0  0
    8.3821   -3.8250    7.6460 C   0  0  0  0  0  0  0  0  0  0  0  0
    8.0629   -3.3800    6.3019 C   0  0  0  0  0  0  0  0  0  0  0  0
    7.0187   -3.8018    5.5714 C   0  0  0  0  0  0  0  0  0  0  0  0
    6.8044   -3.4881    4.1790 C   0  0  0  0  0  0  0  0  0  0  0  0
    6.6100   -2.2911    3.6051 C   0  0  0  0  0  0  0  0  0  0  0  0
    6.5285   -0.9374    4.2447 C   0  0  1  0  0  0  0  0  0  0  0  0
    7.5600   -0.1374    3.6681 O   0  0  0  0  0  0  0  0  0  0  0  0
    5.1966   -0.2344    3.9469 C   0  0  0  0  0  0  0  0  0  0  0  0
    3.9488   -0.9432    4.4720 C   0  0  0  0  0  0  0  0  0  0  0  0
    3.8628   -0.9634    5.9922 C   0  0  0  0  0  0  0  0  0  0  0  0
    2.5067   -1.4634    6.4000 C   0  0  0  0  0  0  0  0  0  0  0  0
    2.0220   -2.5445    6.1173 O   0  0  0  0  0  0  0  0  0  0  0  0
    1.8244   -0.5755    7.1474 O   0  0  0  0  0  0  0  0  0  0  0  0
    1.0458   -1.5971   13.9094 H   0  0  0  0  0  0  0  0  0  0  0  0
    0.6169   -3.1696   13.2120 H   0  0  0  0  0  0  0  0  0  0  0  0
   -0.0793   -1.6810   12.5418 H   0  0  0  0  0  0  0  0  0  0  0  0
    2.8774   -2.4524   12.4969 H   0  0  0  0  0  0  0  0  0  0  0  0
    2.2195   -0.9503   11.8361 H   0  0  0  0  0  0  0  0  0  0  0  0
    0.7698   -2.2907   10.2876 H   0  0  0  0  0  0  0  0  0  0  0  0
    1.5059   -3.7765   10.8715 H   0  0  0  0  0  0  0  0  0  0  0  0
    3.0258   -1.4879    9.4981 H   0  0  0  0  0  0  0  0  0  0  0  0
    2.3370   -2.8958    8.6965 H   0  0  0  0  0  0  0  0  0  0  0  0
    4.5698   -3.3778    8.8658 H   0  0  0  0  0  0  0  0  0  0  0  0
    3.7870   -4.4039   10.0738 H   0  0  0  0  0  0  0  0  0  0  0  0
    4.8152   -1.8201   11.2296 H   0  0  0  0  0  0  0  0  0  0  0  0
    6.7390   -2.9186   12.0276 H   0  0  0  0  0  0  0  0  0  0  0  0
    5.8374   -5.4006   10.4222 H   0  0  0  0  0  0  0  0  0  0  0  0
    6.9024   -5.3483   11.7903 H   0  0  0  0  0  0  0  0  0  0  0  0
    8.6164   -4.0776   10.3728 H   0  0  0  0  0  0  0  0  0  0  0  0
    7.8079   -6.5830    9.3189 H   0  0  0  0  0  0  0  0  0  0  0  0
    6.4507   -4.3442    8.2786 H   0  0  0  0  0  0  0  0  0  0  0  0
    9.4362   -3.7704    7.9174 H   0  0  0  0  0  0  0  0  0  0  0  0
    8.8034   -2.7200    5.8531 H   0  0  0  0  0  0  0  0  0  0  0  0
    6.3160   -4.5250    5.9801 H   0  0  0  0  0  0  0  0  0  0  0  0
    6.7534   -4.3692    3.5382 H   0  0  0  0  0  0  0  0  0  0  0  0
    6.4514   -2.2849    2.5262 H   0  0  0  0  0  0  0  0  0  0  0  0
    6.7038   -0.9699    5.3234 H   0  0  0  0  0  0  0  0  0  0  0  0
    8.3820   -0.6534    3.7215 H   0  0  0  0  0  0  0  0  0  0  0  0
    5.0900   -0.1075    2.8605 H   0  0  0  0  0  0  0  0  0  0  0  0
    5.2327    0.7880    4.3460 H   0  0  0  0  0  0  0  0  0  0  0  0
    3.8921   -1.9664    4.0816 H   0  0  0  0  0  0  0  0  0  0  0  0
    3.0674   -0.4243    4.0729 H   0  0  0  0  0  0  0  0  0  0  0  0
    4.0162    0.0432    6.3979 H   0  0  0  0  0  0  0  0  0  0  0  0
    4.6182   -1.6159    6.4419 H   0  0  0  0  0  0  0  0  0  0  0  0
    0.9792   -1.0297    7.3471 H   0  0  0  0  0  0  0  0  0  0  0  0
  1  2  1  0  0  0  0
  1 25  1  0  0  0  0
  1 26  1  0  0  0  0
  1 27  1  0  0  0  0
  2  3  1  0  0  0  0
  2 28  1  0  0  0  0
  2 29  1  0  0  0  0
  3  4  1  0  0  0  0
  3 30  1  0  0  0  0
  3 31  1  0  0  0  0
  4  5  1  0  0  0  0
  4 32  1  0  0  0  0
  4 33  1  0  0  0  0
  5  6  1  0  0  0  0
  5 34  1  0  0  0  0
  5 35  1  0  0  0  0
  6  7  2  0  0  0  0
  6 36  1  0  0  0  0
  7  8  1  0  0  0  0
  7 37  1  0  0  0  0
  8  9  1  0  0  0  0
  8 38  1  0  0  0  0
  8 39  1  0  0  0  0
  9 10  1  0  0  0  0
  9 11  1  0  0  0  0
  9 40  1  1  0  0  0
 10 41  1  0  0  0  0
 11 12  2  0  0  0  0
 11 42  1  0  0  0  0
 12 13  1  0  0  0  0
 12 43  1  0  0  0  0
 13 14  2  0  0  0  0
 13 44  1  0  0  0  0
 14 15  1  0  0  0  0
 14 45  1  0  0  0  0
 15 16  2  0  0  0  0
 15 46  1  0  0  0  0
 16 17  1  0  0  0  0
 16 47  1  0  0  0  0
 17 18  1  0  0  0  0
 17 19  1  0  0  0  0
 17 48  1  1  0  0  0
 18 49  1  0  0  0  0
 19 20  1  0  0  0  0
 19 50  1  0  0  0  0
 19 51  1  0  0  0  0
 20 21  1  0  0  0  0
 20 52  1  0  0  0  0
 20 53  1  0  0  0  0
 21 22  1  0  0  0  0
 21 54  1  0  0  0  0
 21 55  1  0  0  0  0
 22 23  2  0  0  0  0
 22 24  1  0  0  0  0
 24 56  1  0  0  0  0
M  END
$$$$
