CHEBI:16878
 OpenBabel04242415293D

 29 28  0  0  1  0  0  0  0  0999 V2000
    0.6740   -0.0436    0.9291 C   0  0  0  0  0  0  0  0  0  0  0  0
    1.6932    0.4230   -0.0716 C   0  0  0  0  0  0  0  0  0  0  0  0
    1.4571    1.2801   -0.9142 O   0  0  0  0  0  0  0  0  0  0  0  0
    2.9187   -0.1836    0.0621 N   0  0  0  0  0  0  0  0  0  0  0  0
    3.9956    0.0341   -0.9074 C   0  0  1  0  0  0  0  0  0  0  0  0
    5.0956    0.9315   -0.3221 C   0  0  0  0  0  0  0  0  0  0  0  0
    4.6111    2.3103    0.1319 C   0  0  0  0  0  0  0  0  0  0  0  0
    3.9856    3.0948   -0.9923 C   0  0  0  0  0  0  0  0  0  0  0  0
    4.4242    3.1385   -2.1358 O   0  0  0  0  0  0  0  0  0  0  0  0
    2.8839    3.7391   -0.5817 O   0  0  0  0  0  0  0  0  0  0  0  0
    2.0057    4.6328   -1.5646 P   0  0  0  0  0  0  0  0  0  0  0  0
    0.6394    4.9909   -1.0821 O   0  0  0  0  0  0  0  0  0  0  0  0
    2.8686    5.9639   -1.7847 O   0  0  0  0  0  0  0  0  0  0  0  0
    2.0670    3.9805   -3.0205 O   0  0  0  0  0  0  0  0  0  0  0  0
    4.6026   -1.3110   -1.3247 C   0  0  0  0  0  0  0  0  0  0  0  0
    5.5055   -1.4814   -2.1296 O   0  0  0  0  0  0  0  0  0  0  0  0
    4.0658   -2.3741   -0.6803 O   0  0  0  0  0  0  0  0  0  0  0  0
    0.4151   -1.0874    0.7336 H   0  0  0  0  0  0  0  0  0  0  0  0
   -0.2277    0.5696    0.8460 H   0  0  0  0  0  0  0  0  0  0  0  0
    1.0726    0.0576    1.9424 H   0  0  0  0  0  0  0  0  0  0  0  0
    2.9675   -1.0494    0.5917 H   0  0  0  0  0  0  0  0  0  0  0  0
    3.5717    0.4728   -1.8175 H   0  0  0  0  0  0  0  0  0  0  0  0
    5.8917    1.0564   -1.0678 H   0  0  0  0  0  0  0  0  0  0  0  0
    5.5598    0.4293    0.5370 H   0  0  0  0  0  0  0  0  0  0  0  0
    5.4536    2.8963    0.5158 H   0  0  0  0  0  0  0  0  0  0  0  0
    3.8939    2.2027    0.9531 H   0  0  0  0  0  0  0  0  0  0  0  0
    2.2557    6.7068   -1.9442 H   0  0  0  0  0  0  0  0  0  0  0  0
    2.9943    3.7679   -3.2623 H   0  0  0  0  0  0  0  0  0  0  0  0
    4.5359   -3.1410   -1.0744 H   0  0  0  0  0  0  0  0  0  0  0  0
  1  2  1  0  0  0  0
  1 18  1  0  0  0  0
  1 19  1  0  0  0  0
  1 20  1  0  0  0  0
  2  3  2  0  0  0  0
  2  4  1  0  0  0  0
  4  5  1  0  0  0  0
  4 21  1  0  0  0  0
  5  6  1  0  0  0  0
  5 15  1  0  0  0  0
  5 22  1  6  0  0  0
  6  7  1  0  0  0  0
  6 23  1  0  0  0  0
  6 24  1  0  0  0  0
  7  8  1  0  0  0  0
  7 25  1  0  0  0  0
  7 26  1  0  0  0  0
  8  9  2  0  0  0  0
  8 10  1  0  0  0  0
 10 11  1  0  0  0  0
 11 12  2  0  0  0  0
 11 13  1  0  0  0  0
 11 14  1  0  0  0  0
 13 27  1  0  0  0  0
 14 28  1  0  0  0  0
 15 16  2  0  0  0  0
 15 17  1  0  0  0  0
 17 29  1  0  0  0  0
M  END
$$$$
