CHEBI:15611
 OpenBabel04242412533D

 13 12  0  0  0  0  0  0  0  0999 V2000
    2.6069    0.1675   -1.0186 C   0  0  0  0  0  0  0  0  0  0  0  0
    3.7923   -0.1452   -0.2208 N   0  0  0  0  0  0  0  0  0  0  0  0
    3.3854   -0.4653    1.1759 C   0  0  0  0  0  0  0  0  0  0  0  0
    4.5760   -1.0837    1.9066 C   0  0  0  0  0  0  0  0  0  0  0  0
    4.6651   -1.2076    3.1175 O   0  0  0  0  0  0  0  0  0  0  0  0
    5.5231   -1.5229    1.0367 O   0  0  0  0  0  0  0  0  0  0  0  0
    2.9140    0.4338   -2.0347 H   0  0  0  0  0  0  0  0  0  0  0  0
    2.0534    1.0140   -0.5992 H   0  0  0  0  0  0  0  0  0  0  0  0
    1.9413   -0.6985   -1.0909 H   0  0  0  0  0  0  0  0  0  0  0  0
    4.3707    0.7021   -0.1862 H   0  0  0  0  0  0  0  0  0  0  0  0
    2.5790   -1.2059    1.1866 H   0  0  0  0  0  0  0  0  0  0  0  0
    3.0796    0.4470    1.6969 H   0  0  0  0  0  0  0  0  0  0  0  0
    5.1851   -1.3081    0.1322 H   0  0  0  0  0  0  0  0  0  0  0  0
  1  2  1  0  0  0  0
  1  7  1  0  0  0  0
  1  8  1  0  0  0  0
  1  9  1  0  0  0  0
  2  3  1  0  0  0  0
  2 10  1  0  0  0  0
  3  4  1  0  0  0  0
  3 11  1  0  0  0  0
  3 12  1  0  0  0  0
  4  5  2  0  0  0  0
  4  6  1  0  0  0  0
  6 13  1  0  0  0  0
M  END
$$$$
