CHEBI:27386
 OpenBabel04252409443D

 19 19  0  0  0  0  0  0  0  0999 V2000
    3.7019    1.3423    1.0171 O   0  0  0  0  0  0  0  0  0  0  0  0
    3.5632    0.4328    0.2183 C   0  0  0  0  0  0  0  0  0  0  0  0
    2.8257    0.5431   -0.9046 O   0  0  0  0  0  0  0  0  0  0  0  0
    4.1679   -0.9075    0.3544 C   0  0  0  0  0  0  0  0  0  0  0  0
    4.9250   -1.1785    1.4292 C   0  0  0  0  0  0  0  0  0  0  0  0
    5.5918   -2.4661    1.6679 C   0  0  0  0  0  0  0  0  0  0  0  0
    6.8298   -2.4707    2.3245 C   0  0  0  0  0  0  0  0  0  0  0  0
    7.4872   -3.6726    2.5988 C   0  0  0  0  0  0  0  0  0  0  0  0
    6.9084   -4.8842    2.2289 C   0  0  0  0  0  0  0  0  0  0  0  0
    5.6700   -4.8949    1.5909 C   0  0  0  0  0  0  0  0  0  0  0  0
    5.0117   -3.6927    1.3170 C   0  0  0  0  0  0  0  0  0  0  0  0
    2.7925   -0.2508   -1.4668 H   0  0  0  0  0  0  0  0  0  0  0  0
    4.0014   -1.6388   -0.4234 H   0  0  0  0  0  0  0  0  0  0  0  0
    5.0982   -0.4103    2.1828 H   0  0  0  0  0  0  0  0  0  0  0  0
    7.2984   -1.5357    2.6250 H   0  0  0  0  0  0  0  0  0  0  0  0
    8.4493   -3.6611    3.1047 H   0  0  0  0  0  0  0  0  0  0  0  0
    7.4181   -5.8195    2.4454 H   0  0  0  0  0  0  0  0  0  0  0  0
    5.2110   -5.8406    1.3142 H   0  0  0  0  0  0  0  0  0  0  0  0
    4.0351   -3.7333    0.8425 H   0  0  0  0  0  0  0  0  0  0  0  0
  1  2  2  0  0  0  0
  2  3  1  0  0  0  0
  2  4  1  0  0  0  0
  3 12  1  0  0  0  0
  4  5  2  0  0  0  0
  4 13  1  0  0  0  0
  5  6  1  0  0  0  0
  5 14  1  0  0  0  0
  6  7  1  0  0  0  0
  6 11  2  0  0  0  0
  7  8  2  0  0  0  0
  7 15  1  0  0  0  0
  8  9  1  0  0  0  0
  8 16  1  0  0  0  0
  9 10  2  0  0  0  0
  9 17  1  0  0  0  0
 10 11  1  0  0  0  0
 10 18  1  0  0  0  0
 11 19  1  0  0  0  0
M  END
$$$$
