CHEBI:17878
 OpenBabel04242423133D

 18 18  0  0  0  0  0  0  0  0999 V2000
    1.0943   -0.0702    0.0924 O   0  0  0  0  0  0  0  0  0  0  0  0
    2.3191   -0.0849   -0.0245 C   0  0  0  0  0  0  0  0  0  0  0  0
    3.0918   -1.3839   -0.0676 C   0  0  0  0  0  0  0  0  0  0  0  0
    4.0408   -1.3882   -1.2584 C   0  0  0  0  0  0  0  0  0  0  0  0
    4.9432   -0.1553   -1.2784 C   0  0  0  0  0  0  0  0  0  0  0  0
    4.1238    1.1380   -1.2508 C   0  0  0  0  0  0  0  0  0  0  0  0
    3.1566    1.1954   -0.0679 C   0  0  0  0  0  0  0  0  0  0  0  0
    3.8650    1.4167    1.1442 O   0  0  0  0  0  0  0  0  0  0  0  0
    2.3874   -2.2186   -0.1478 H   0  0  0  0  0  0  0  0  0  0  0  0
    3.6381   -1.4925    0.8752 H   0  0  0  0  0  0  0  0  0  0  0  0
    3.4584   -1.4194   -2.1878 H   0  0  0  0  0  0  0  0  0  0  0  0
    4.6561   -2.2944   -1.2349 H   0  0  0  0  0  0  0  0  0  0  0  0
    5.5632   -0.1725   -2.1823 H   0  0  0  0  0  0  0  0  0  0  0  0
    5.6297   -0.1850   -0.4244 H   0  0  0  0  0  0  0  0  0  0  0  0
    3.5550    1.2119   -2.1862 H   0  0  0  0  0  0  0  0  0  0  0  0
    4.8116    1.9907   -1.2131 H   0  0  0  0  0  0  0  0  0  0  0  0
    2.4755    2.0426   -0.2027 H   0  0  0  0  0  0  0  0  0  0  0  0
    4.5303    0.7198    1.2623 H   0  0  0  0  0  0  0  0  0  0  0  0
  1  2  2  0  0  0  0
  2  3  1  0  0  0  0
  2  7  1  0  0  0  0
  3  4  1  0  0  0  0
  3  9  1  0  0  0  0
  3 10  1  0  0  0  0
  4  5  1  0  0  0  0
  4 11  1  0  0  0  0
  4 12  1  0  0  0  0
  5  6  1  0  0  0  0
  5 13  1  0  0  0  0
  5 14  1  0  0  0  0
  6  7  1  0  0  0  0
  6 15  1  0  0  0  0
  6 16  1  0  0  0  0
  7  8  1  0  0  0  0
  7 17  1  0  0  0  0
  8 18  1  0  0  0  0
M  END
$$$$
