CHEBI:16856
 OpenBabel04242415263D

 37 36  0  0  1  0  0  0  0  0999 V2000
    0.8592   -0.1974    0.5382 N   0  0  0  0  0  0  0  0  0  0  0  0
    1.6459    1.0666    0.3662 C   0  0  1  0  0  0  0  0  0  0  0  0
    2.9245    0.7705   -0.4272 C   0  0  0  0  0  0  0  0  0  0  0  0
    3.8350    1.9779   -0.6501 C   0  0  0  0  0  0  0  0  0  0  0  0
    4.2004    2.6854    0.6381 C   0  0  0  0  0  0  0  0  0  0  0  0
    4.5480    2.0786    1.6458 O   0  0  0  0  0  0  0  0  0  0  0  0
    4.1560    4.0523    0.5469 N   0  0  0  0  0  0  0  0  0  0  0  0
    4.6056    4.9209    1.6340 C   0  0  1  0  0  0  0  0  0  0  0  0
    5.4907    6.0568    1.1045 C   0  0  0  0  0  0  0  0  0  0  0  0
    7.0572    5.4409    0.3949 S   0  0  0  0  0  0  0  0  0  0  0  0
    3.3725    5.5611    2.2915 C   0  0  0  0  0  0  0  0  0  0  0  0
    2.5417    6.1900    1.6390 O   0  0  0  0  0  0  0  0  0  0  0  0
    3.2734    5.3775    3.6508 N   0  0  0  0  0  0  0  0  0  0  0  0
    2.2373    6.0184    4.4517 C   0  0  0  0  0  0  0  0  0  0  0  0
    2.8026    6.9954    5.4739 C   0  0  0  0  0  0  0  0  0  0  0  0
    2.1497    7.6963    6.2313 O   0  0  0  0  0  0  0  0  0  0  0  0
    4.1525    7.0016    5.5475 O   0  0  0  0  0  0  0  0  0  0  0  0
    0.7266    2.1029   -0.3122 C   0  0  0  0  0  0  0  0  0  0  0  0
    1.0880    3.1461   -0.8333 O   0  0  0  0  0  0  0  0  0  0  0  0
   -0.5763    1.7248   -0.2264 O   0  0  0  0  0  0  0  0  0  0  0  0
    1.4001   -0.8088    1.1589 H   0  0  0  0  0  0  0  0  0  0  0  0
    0.8582   -0.6988   -0.3575 H   0  0  0  0  0  0  0  0  0  0  0  0
    1.8703    1.4480    1.3677 H   0  0  0  0  0  0  0  0  0  0  0  0
    2.6691    0.3564   -1.4115 H   0  0  0  0  0  0  0  0  0  0  0  0
    3.4966   -0.0054    0.0991 H   0  0  0  0  0  0  0  0  0  0  0  0
    3.3931    2.6736   -1.3690 H   0  0  0  0  0  0  0  0  0  0  0  0
    4.7750    1.6386   -1.1034 H   0  0  0  0  0  0  0  0  0  0  0  0
    3.5378    4.4660   -0.1475 H   0  0  0  0  0  0  0  0  0  0  0  0
    5.1525    4.3314    2.3788 H   0  0  0  0  0  0  0  0  0  0  0  0
    5.7362    6.7630    1.9045 H   0  0  0  0  0  0  0  0  0  0  0  0
    4.9704    6.6179    0.3196 H   0  0  0  0  0  0  0  0  0  0  0  0
    7.3660    6.5542   -0.2857 H   0  0  0  0  0  0  0  0  0  0  0  0
    4.0423    4.9515    4.1554 H   0  0  0  0  0  0  0  0  0  0  0  0
    1.7196    5.2230    4.9948 H   0  0  0  0  0  0  0  0  0  0  0  0
    1.5341    6.5582    3.8120 H   0  0  0  0  0  0  0  0  0  0  0  0
    4.3398    7.6619    6.2493 H   0  0  0  0  0  0  0  0  0  0  0  0
   -0.5696    0.8554    0.2492 H   0  0  0  0  0  0  0  0  0  0  0  0
  1  2  1  0  0  0  0
  1 21  1  0  0  0  0
  1 22  1  0  0  0  0
  2  3  1  0  0  0  0
  2 18  1  0  0  0  0
  2 23  1  1  0  0  0
  3  4  1  0  0  0  0
  3 24  1  0  0  0  0
  3 25  1  0  0  0  0
  4  5  1  0  0  0  0
  4 26  1  0  0  0  0
  4 27  1  0  0  0  0
  5  6  2  0  0  0  0
  5  7  1  0  0  0  0
  7  8  1  0  0  0  0
  7 28  1  0  0  0  0
  8  9  1  0  0  0  0
  8 11  1  0  0  0  0
  8 29  1  1  0  0  0
  9 10  1  0  0  0  0
  9 30  1  0  0  0  0
  9 31  1  0  0  0  0
 10 32  1  0  0  0  0
 11 12  2  0  0  0  0
 11 13  1  0  0  0  0
 13 14  1  0  0  0  0
 13 33  1  0  0  0  0
 14 15  1  0  0  0  0
 14 34  1  0  0  0  0
 14 35  1  0  0  0  0
 15 16  2  0  0  0  0
 15 17  1  0  0  0  0
 17 36  1  0  0  0  0
 18 19  2  0  0  0  0
 18 20  1  0  0  0  0
 20 37  1  0  0  0  0
M  END
$$$$
