CHEBI:15368
 OpenBabel04242411463D

  8  7  0  0  0  0  0  0  0  0999 V2000
    1.0041   -0.0723   -0.0015 C   0  0  0  0  0  0  0  0  0  0  0  0
    2.3406   -0.0744   -0.0475 C   0  0  0  0  0  0  0  0  0  0  0  0
    3.0815    1.0960   -0.5573 C   0  0  0  0  0  0  0  0  0  0  0  0
    4.3050    1.1037   -0.6034 O   0  0  0  0  0  0  0  0  0  0  0  0
    0.4689   -0.9390    0.3755 H   0  0  0  0  0  0  0  0  0  0  0  0
    0.4093    0.7741   -0.3305 H   0  0  0  0  0  0  0  0  0  0  0  0
    2.9351   -0.9189    0.2807 H   0  0  0  0  0  0  0  0  0  0  0  0
    2.4739    1.9536   -0.8905 H   0  0  0  0  0  0  0  0  0  0  0  0
  1  2  2  0  0  0  0
  1  5  1  0  0  0  0
  1  6  1  0  0  0  0
  2  3  1  0  0  0  0
  2  7  1  0  0  0  0
  3  4  2  0  0  0  0
  3  8  1  0  0  0  0
M  END
$$$$
