CHEBI:15386
 OpenBabel04242411483D

 28 30  0  0  1  0  0  0  0  0999 V2000
   -0.5453    0.4206   -1.6438 O   0  0  0  0  0  0  0  0  0  0  0  0
    0.5897    1.2039   -2.0510 C   0  0  2  0  0  0  0  0  0  0  0  0
    0.6126    1.2471   -3.5665 C   0  0  0  0  0  0  0  0  0  0  0  0
    1.5128    0.4020   -4.2528 C   0  0  0  0  0  0  0  0  0  0  0  0
    1.5526    0.4123   -5.6484 C   0  0  0  0  0  0  0  0  0  0  0  0
    0.7179    1.2609   -6.3715 C   0  0  0  0  0  0  0  0  0  0  0  0
   -0.1903    2.1025   -5.7193 C   0  0  0  0  0  0  0  0  0  0  0  0
   -1.0244    2.9456   -6.4730 C   0  0  0  0  0  0  0  0  0  0  0  0
   -1.9509    3.7805   -5.8530 C   0  0  0  0  0  0  0  0  0  0  0  0
   -2.0614    3.7745   -4.4703 C   0  0  0  0  0  0  0  0  0  0  0  0
   -1.2360    2.9427   -3.7085 C   0  0  0  0  0  0  0  0  0  0  0  0
   -0.2699    2.0962   -4.3035 C   0  0  0  0  0  0  0  0  0  0  0  0
    2.4236   -0.4952   -3.5330 C   0  0  0  0  0  0  0  0  0  0  0  0
    2.6081   -0.3762   -2.2130 C   0  0  0  0  0  0  0  0  0  0  0  0
    1.8805    0.6396   -1.3900 C   0  0  2  0  0  0  0  0  0  0  0  0
    1.5410    0.0311   -0.1364 O   0  0  0  0  0  0  0  0  0  0  0  0
   -0.4988    0.4028   -0.6701 H   0  0  0  0  0  0  0  0  0  0  0  0
    0.4435    2.2113   -1.6442 H   0  0  0  0  0  0  0  0  0  0  0  0
    2.2406   -0.2327   -6.1899 H   0  0  0  0  0  0  0  0  0  0  0  0
    0.7795    1.2521   -7.4576 H   0  0  0  0  0  0  0  0  0  0  0  0
   -0.9602    2.9549   -7.5591 H   0  0  0  0  0  0  0  0  0  0  0  0
   -2.5901    4.4248   -6.4503 H   0  0  0  0  0  0  0  0  0  0  0  0
   -2.7925    4.4103   -3.9782 H   0  0  0  0  0  0  0  0  0  0  0  0
   -1.3748    2.9546   -2.6305 H   0  0  0  0  0  0  0  0  0  0  0  0
    2.9798   -1.2334   -4.1030 H   0  0  0  0  0  0  0  0  0  0  0  0
    3.3330   -1.0108   -1.7116 H   0  0  0  0  0  0  0  0  0  0  0  0
    2.5739    1.4636   -1.1841 H   0  0  0  0  0  0  0  0  0  0  0  0
    1.1881   -0.8514   -0.3573 H   0  0  0  0  0  0  0  0  0  0  0  0
  1  2  1  0  0  0  0
  1 17  1  0  0  0  0
  2  3  1  0  0  0  0
  2 15  1  0  0  0  0
  2 18  1  1  0  0  0
  3  4  1  0  0  0  0
  3 12  2  0  0  0  0
  4  5  2  0  0  0  0
  4 13  1  0  0  0  0
  5  6  1  0  0  0  0
  5 19  1  0  0  0  0
  6  7  2  0  0  0  0
  6 20  1  0  0  0  0
  7  8  1  0  0  0  0
  7 12  1  0  0  0  0
  8  9  2  0  0  0  0
  8 21  1  0  0  0  0
  9 10  1  0  0  0  0
  9 22  1  0  0  0  0
 10 11  2  0  0  0  0
 10 23  1  0  0  0  0
 11 12  1  0  0  0  0
 11 24  1  0  0  0  0
 13 14  2  0  0  0  0
 13 25  1  0  0  0  0
 14 15  1  0  0  0  0
 14 26  1  0  0  0  0
 15 16  1  0  0  0  0
 15 27  1  1  0  0  0
 16 28  1  0  0  0  0
M  END
$$$$
