CHEBI:16166
 OpenBabel04242413583D

 39 39  0  0  0  0  0  0  0  0999 V2000
    6.2059    2.7691   -2.9324 O   0  0  0  0  0  0  0  0  0  0  0  0
    6.2405    3.7745   -2.2406 C   0  0  0  0  0  0  0  0  0  0  0  0
    6.6565    4.9576   -2.7377 O   0  0  0  0  0  0  0  0  0  0  0  0
    5.9038    3.8029   -0.7672 C   0  0  0  0  0  0  0  0  0  0  0  0
    4.5615    4.4129   -0.3419 C   0  0  0  0  0  0  0  0  0  0  0  0
    4.3365    5.8520   -0.7426 C   0  0  0  0  0  0  0  0  0  0  0  0
    3.3005    6.4815   -0.6132 O   0  0  0  0  0  0  0  0  0  0  0  0
    5.4367    6.5031   -1.1749 O   0  0  0  0  0  0  0  0  0  0  0  0
    3.3036    3.5876   -0.6979 C   0  0  0  0  0  0  0  0  0  0  0  0
    3.2396    3.3410   -2.1022 O   0  0  0  0  0  0  0  0  0  0  0  0
    3.3997    2.0861   -2.5685 C   0  0  0  0  0  0  0  0  0  0  0  0
    3.6684    1.0996   -1.8992 O   0  0  0  0  0  0  0  0  0  0  0  0
    3.2011    2.0025   -4.0322 C   0  0  0  0  0  0  0  0  0  0  0  0
    2.9864    2.9678   -4.9409 C   0  0  0  0  0  0  0  0  0  0  0  0
    2.8995    4.4115   -4.7176 C   0  0  0  0  0  0  0  0  0  0  0  0
    4.0568    5.2016   -4.7939 C   0  0  0  0  0  0  0  0  0  0  0  0
    3.9873    6.5886   -4.6247 C   0  0  0  0  0  0  0  0  0  0  0  0
    2.7532    7.1770   -4.3808 C   0  0  0  0  0  0  0  0  0  0  0  0
    2.6167    8.5291   -4.2283 O   0  0  0  0  0  0  0  0  0  0  0  0
    1.6042    6.3932   -4.2964 C   0  0  0  0  0  0  0  0  0  0  0  0
    0.3933    6.9822   -4.0658 O   0  0  0  0  0  0  0  0  0  0  0  0
    1.6644    5.0157   -4.4639 C   0  0  0  0  0  0  0  0  0  0  0  0
    3.0982    2.4540    0.3240 C   0  0  0  0  0  0  0  0  0  0  0  0
    3.8648    2.1317    1.2187 O   0  0  0  0  0  0  0  0  0  0  0  0
    1.9017    1.8431    0.1908 O   0  0  0  0  0  0  0  0  0  0  0  0
    6.5713    5.6853   -2.0815 H   0  0  0  0  0  0  0  0  0  0  0  0
    6.7267    4.3281   -0.2634 H   0  0  0  0  0  0  0  0  0  0  0  0
    5.9704    2.7696   -0.4042 H   0  0  0  0  0  0  0  0  0  0  0  0
    4.6168    4.4799    0.7556 H   0  0  0  0  0  0  0  0  0  0  0  0
    5.0739    7.4117   -1.3141 H   0  0  0  0  0  0  0  0  0  0  0  0
    2.4290    4.2237   -0.5013 H   0  0  0  0  0  0  0  0  0  0  0  0
    3.2679    0.9766   -4.3859 H   0  0  0  0  0  0  0  0  0  0  0  0
    2.8809    2.6800   -5.9853 H   0  0  0  0  0  0  0  0  0  0  0  0
    5.0220    4.7354   -4.9898 H   0  0  0  0  0  0  0  0  0  0  0  0
    4.8964    7.1764   -4.6938 H   0  0  0  0  0  0  0  0  0  0  0  0
    3.4513    8.9499   -4.4958 H   0  0  0  0  0  0  0  0  0  0  0  0
    0.5961    7.9334   -3.9675 H   0  0  0  0  0  0  0  0  0  0  0  0
    0.7537    4.4274   -4.4045 H   0  0  0  0  0  0  0  0  0  0  0  0
    1.9468    1.0882    0.8144 H   0  0  0  0  0  0  0  0  0  0  0  0
  1  2  2  0  0  0  0
  2  3  1  0  0  0  0
  2  4  1  0  0  0  0
  3 26  1  0  0  0  0
  4  5  1  0  0  0  0
  4 27  1  0  0  0  0
  4 28  1  0  0  0  0
  5  6  1  0  0  0  0
  5  9  1  0  0  0  0
  5 29  1  0  0  0  0
  6  7  2  0  0  0  0
  6  8  1  0  0  0  0
  8 30  1  0  0  0  0
  9 10  1  0  0  0  0
  9 23  1  0  0  0  0
  9 31  1  0  0  0  0
 10 11  1  0  0  0  0
 11 12  2  0  0  0  0
 11 13  1  0  0  0  0
 13 14  2  0  0  0  0
 13 32  1  0  0  0  0
 14 15  1  0  0  0  0
 14 33  1  0  0  0  0
 15 16  1  0  0  0  0
 15 22  2  0  0  0  0
 16 17  2  0  0  0  0
 16 34  1  0  0  0  0
 17 18  1  0  0  0  0
 17 35  1  0  0  0  0
 18 19  1  0  0  0  0
 18 20  2  0  0  0  0
 19 36  1  0  0  0  0
 20 21  1  0  0  0  0
 20 22  1  0  0  0  0
 21 37  1  0  0  0  0
 22 38  1  0  0  0  0
 23 24  2  0  0  0  0
 23 25  1  0  0  0  0
 25 39  1  0  0  0  0
M  END
$$$$
