CHEBI:15730
 OpenBabel04242413103D

 12 11  0  0  0  0  0  0  0  0999 V2000
    0.9755    0.4902    0.2271 C   0  0  0  0  0  0  0  0  0  0  0  0
    2.2375   -0.2857   -0.0193 C   0  0  0  0  0  0  0  0  0  0  0  0
    3.0021   -0.2041   -1.0751 N   0  0  0  0  0  0  0  0  0  0  0  0
    2.5027    0.7382   -1.9814 O   0  0  0  0  0  0  0  0  0  0  0  0
    2.6404   -1.3201    1.0339 C   0  0  0  0  0  0  0  0  0  0  0  0
    2.0381   -1.4885    2.0738 O   0  0  0  0  0  0  0  0  0  0  0  0
    3.7313   -2.0027    0.6395 O   0  0  0  0  0  0  0  0  0  0  0  0
    1.0797    1.5194   -0.1261 H   0  0  0  0  0  0  0  0  0  0  0  0
    0.7388    0.5256    1.2933 H   0  0  0  0  0  0  0  0  0  0  0  0
    0.1519    0.0067   -0.3051 H   0  0  0  0  0  0  0  0  0  0  0  0
    3.1576    0.7229   -2.7057 H   0  0  0  0  0  0  0  0  0  0  0  0
    4.0128   -1.6623   -0.2411 H   0  0  0  0  0  0  0  0  0  0  0  0
  1  2  1  0  0  0  0
  1  8  1  0  0  0  0
  1  9  1  0  0  0  0
  1 10  1  0  0  0  0
  2  3  2  0  0  0  0
  2  5  1  0  0  0  0
  3  4  1  0  0  0  0
  4 11  1  0  0  0  0
  5  6  2  0  0  0  0
  5  7  1  0  0  0  0
  7 12  1  0  0  0  0
M  END
$$$$
