CHEBI:16580
 OpenBabel04242414473D

 25 26  0  0  0  0  0  0  0  0999 V2000
    2.6202    0.3176    2.4860 O   0  0  0  0  0  0  0  0  0  0  0  0
    2.3081    0.6475    1.1671 N   0  0  0  0  0  0  0  0  0  0  0  0
    3.0466    1.6573    0.5102 C   0  0  0  0  0  0  0  0  0  0  0  0
    3.8470    2.5640    1.2088 C   0  0  0  0  0  0  0  0  0  0  0  0
    4.5097    3.6010    0.5397 C   0  0  0  0  0  0  0  0  0  0  0  0
    4.3720    3.7773   -0.8457 C   0  0  0  0  0  0  0  0  0  0  0  0
    5.0697    4.8687   -1.5489 C   0  0  0  0  0  0  0  0  0  0  0  0
    6.4469    5.0836   -1.3695 C   0  0  0  0  0  0  0  0  0  0  0  0
    7.1102    6.1186   -2.0350 C   0  0  0  0  0  0  0  0  0  0  0  0
    6.4067    6.9584   -2.8941 C   0  0  0  0  0  0  0  0  0  0  0  0
    5.0418    6.7644   -3.0876 C   0  0  0  0  0  0  0  0  0  0  0  0
    4.3803    5.7293   -2.4205 C   0  0  0  0  0  0  0  0  0  0  0  0
    3.5399    2.8823   -1.5352 C   0  0  0  0  0  0  0  0  0  0  0  0
    2.8785    1.8453   -0.8653 C   0  0  0  0  0  0  0  0  0  0  0  0
    2.0995    0.9653    2.9982 H   0  0  0  0  0  0  0  0  0  0  0  0
    2.2118   -0.1807    0.5768 H   0  0  0  0  0  0  0  0  0  0  0  0
    3.9763    2.4679    2.2831 H   0  0  0  0  0  0  0  0  0  0  0  0
    5.1270    4.2844    1.1193 H   0  0  0  0  0  0  0  0  0  0  0  0
    7.0205    4.4319   -0.7133 H   0  0  0  0  0  0  0  0  0  0  0  0
    8.1763    6.2648   -1.8830 H   0  0  0  0  0  0  0  0  0  0  0  0
    6.9217    7.7632   -3.4120 H   0  0  0  0  0  0  0  0  0  0  0  0
    4.4883    7.4196   -3.7551 H   0  0  0  0  0  0  0  0  0  0  0  0
    3.3106    5.6062   -2.5771 H   0  0  0  0  0  0  0  0  0  0  0  0
    3.4022    2.9812   -2.6101 H   0  0  0  0  0  0  0  0  0  0  0  0
    2.2281    1.1851   -1.4329 H   0  0  0  0  0  0  0  0  0  0  0  0
  1  2  1  0  0  0  0
  1 15  1  0  0  0  0
  2  3  1  0  0  0  0
  2 16  1  0  0  0  0
  3  4  1  0  0  0  0
  3 14  2  0  0  0  0
  4  5  2  0  0  0  0
  4 17  1  0  0  0  0
  5  6  1  0  0  0  0
  5 18  1  0  0  0  0
  6  7  1  0  0  0  0
  6 13  2  0  0  0  0
  7  8  1  0  0  0  0
  7 12  2  0  0  0  0
  8  9  2  0  0  0  0
  8 19  1  0  0  0  0
  9 10  1  0  0  0  0
  9 20  1  0  0  0  0
 10 11  2  0  0  0  0
 10 21  1  0  0  0  0
 11 12  1  0  0  0  0
 11 22  1  0  0  0  0
 12 23  1  0  0  0  0
 13 14  1  0  0  0  0
 13 24  1  0  0  0  0
 14 25  1  0  0  0  0
M  END
$$$$
