CHEBI:16898
 OpenBabel04242415313D

 10 10  0  0  0  0  0  0  0  0999 V2000
   -0.0932   -1.4226    0.0000 C   0  0  0  0  0  0  0  0  0  0  0  0
    1.1161   -0.7663    0.0118 C   0  0  0  0  0  0  0  0  0  0  0  0
    1.2348    0.5745    0.0137 N   0  0  0  0  0  0  0  0  0  0  0  0
    0.0803    1.2592    0.0031 C   0  0  0  0  0  0  0  0  0  0  0  0
   -1.1528    0.7289   -0.0093 N   0  0  0  0  0  0  0  0  0  0  0  0
   -1.2078   -0.6160   -0.0105 C   0  0  0  0  0  0  0  0  0  0  0  0
   -0.1629   -2.5009   -0.0009 H   0  0  0  0  0  0  0  0  0  0  0  0
    2.0532   -1.3152    0.0203 H   0  0  0  0  0  0  0  0  0  0  0  0
    0.1502    2.3413    0.0048 H   0  0  0  0  0  0  0  0  0  0  0  0
   -2.2078   -1.0396   -0.0206 H   0  0  0  0  0  0  0  0  0  0  0  0
  1  2  1  0  0  0  0
  1  6  2  0  0  0  0
  1  7  1  0  0  0  0
  2  3  2  0  0  0  0
  2  8  1  0  0  0  0
  3  4  1  0  0  0  0
  4  5  2  0  0  0  0
  4  9  1  0  0  0  0
  5  6  1  0  0  0  0
  6 10  1  0  0  0  0
M  END
$$$$
