CHEBI:15582
 OpenBabel04242412503D

 21 20  0  0  1  0  0  0  0  0999 V2000
    1.2655    0.4951    0.5769 C   0  0  0  0  0  0  0  0  0  0  0  0
    2.7434    0.1458    0.3838 C   0  0  2  0  0  0  0  0  0  0  0  0
    3.0493    0.1066   -1.0991 C   0  0  0  0  0  0  0  0  0  0  0  0
    2.3099   -0.4337   -1.9107 O   0  0  0  0  0  0  0  0  0  0  0  0
    4.2440    0.6229   -1.4448 O   0  0  0  0  0  0  0  0  0  0  0  0
    3.1487   -1.2054    1.0084 C   0  0  1  0  0  0  0  0  0  0  0  0
    2.9666   -1.2172    2.5277 C   0  0  0  0  0  0  0  0  0  0  0  0
    2.3889   -2.3127    0.4912 O   0  0  0  0  0  0  0  0  0  0  0  0
    4.6363   -1.4634    0.7268 C   0  0  0  0  0  0  0  0  0  0  0  0
    5.4842   -0.5817    0.6753 O   0  0  0  0  0  0  0  0  0  0  0  0
    4.8937   -2.7737    0.5106 O   0  0  0  0  0  0  0  0  0  0  0  0
    1.0373    0.6751    1.6319 H   0  0  0  0  0  0  0  0  0  0  0  0
    0.6067   -0.3024    0.2171 H   0  0  0  0  0  0  0  0  0  0  0  0
    1.0082    1.4056    0.0239 H   0  0  0  0  0  0  0  0  0  0  0  0
    3.3263    0.9642    0.8269 H   0  0  0  0  0  0  0  0  0  0  0  0
    4.8624    0.7927   -0.6969 H   0  0  0  0  0  0  0  0  0  0  0  0
    1.9075   -1.1769    2.8035 H   0  0  0  0  0  0  0  0  0  0  0  0
    3.4889   -0.3808    3.0042 H   0  0  0  0  0  0  0  0  0  0  0  0
    3.3589   -2.1457    2.9603 H   0  0  0  0  0  0  0  0  0  0  0  0
    2.1584   -2.1288   -0.4459 H   0  0  0  0  0  0  0  0  0  0  0  0
    4.0445   -3.2755    0.5520 H   0  0  0  0  0  0  0  0  0  0  0  0
  1 12  1  0  0  0  0
  1 13  1  0  0  0  0
  1 14  1  0  0  0  0
  2  6  1  0  0  0  0
  2  3  1  0  0  0  0
  2  1  1  0  0  0  0
  2 15  1  1  0  0  0
  3  4  2  0  0  0  0
  3  5  1  0  0  0  0
  5 16  1  0  0  0  0
  6  7  1  0  0  0  0
  6  8  1  6  0  0  0
  6  9  1  0  0  0  0
  7 17  1  0  0  0  0
  7 18  1  0  0  0  0
  7 19  1  0  0  0  0
  8 20  1  0  0  0  0
  9 10  2  0  0  0  0
  9 11  1  0  0  0  0
 11 21  1  0  0  0  0
M  END
$$$$
