CHEBI:16675
 OpenBabel04242415033D

 17 17  0  0  0  0  0  0  0  0999 V2000
    1.5816   -0.2610   -1.5721 O   0  0  0  0  0  0  0  0  0  0  0  0
    1.7888   -0.5099   -0.4023 C   0  0  0  0  0  0  0  0  0  0  0  0
    1.0097   -0.0813    0.6024 O   0  0  0  0  0  0  0  0  0  0  0  0
    2.7909   -1.4391    0.1082 C   0  0  0  0  0  0  0  0  0  0  0  0
    2.6971   -2.7878   -0.2427 C   0  0  0  0  0  0  0  0  0  0  0  0
    3.6326   -3.6910    0.2583 C   0  0  0  0  0  0  0  0  0  0  0  0
    4.6359   -3.2145    1.0892 C   0  0  0  0  0  0  0  0  0  0  0  0
    4.7687   -1.9143    1.4388 N   0  0  0  0  0  0  0  0  0  0  0  0
    3.8348   -1.0425    0.9268 C   0  0  0  0  0  0  0  0  0  0  0  0
    4.0827    0.3866    1.2952 C   0  0  0  0  0  0  0  0  0  0  0  0
    3.4661    1.3568    0.8986 O   0  0  0  0  0  0  0  0  0  0  0  0
    5.1468    0.4656    2.1364 O   0  0  0  0  0  0  0  0  0  0  0  0
    0.4046    0.5713    0.1894 H   0  0  0  0  0  0  0  0  0  0  0  0
    1.8968   -3.1322   -0.8942 H   0  0  0  0  0  0  0  0  0  0  0  0
    3.5773   -4.7458    0.0069 H   0  0  0  0  0  0  0  0  0  0  0  0
    5.3831   -3.8889    1.5018 H   0  0  0  0  0  0  0  0  0  0  0  0
    5.5063   -0.4424    2.2822 H   0  0  0  0  0  0  0  0  0  0  0  0
  1  2  2  0  0  0  0
  2  3  1  0  0  0  0
  2  4  1  0  0  0  0
  3 13  1  0  0  0  0
  4  5  1  0  0  0  0
  4  9  2  0  0  0  0
  5  6  2  0  0  0  0
  5 14  1  0  0  0  0
  6  7  1  0  0  0  0
  6 15  1  0  0  0  0
  7  8  2  0  0  0  0
  7 16  1  0  0  0  0
  8  9  1  0  0  0  0
  9 10  1  0  0  0  0
 10 11  2  0  0  0  0
 10 12  1  0  0  0  0
 12 17  1  0  0  0  0
M  END
$$$$
