CHEBI:17919
 OpenBabel04242423163D

 16 15  0  0  0  0  0  0  0  0999 V2000
    2.2099   -1.5693   -0.0852 O   0  0  0  0  0  0  0  0  0  0  0  0
    1.9632   -0.3771   -0.1882 C   0  0  0  0  0  0  0  0  0  0  0  0
    0.6958    0.0885   -0.1335 O   0  0  0  0  0  0  0  0  0  0  0  0
    3.0103    0.7017   -0.4212 C   0  0  0  0  0  0  0  0  0  0  0  0
    3.0358    1.6733    0.7652 C   0  0  0  0  0  0  0  0  0  0  0  0
    1.7119    2.9274    0.6252 S   0  0  0  0  0  0  0  0  0  0  0  0
    4.3668    0.0014   -0.6155 C   0  0  0  0  0  0  0  0  0  0  0  0
    5.6692    1.1389   -1.1919 S   0  0  0  0  0  0  0  0  0  0  0  0
    0.6231    1.0667   -0.1612 H   0  0  0  0  0  0  0  0  0  0  0  0
    2.7526    1.2071   -1.3618 H   0  0  0  0  0  0  0  0  0  0  0  0
    3.9756    2.2271    0.8323 H   0  0  0  0  0  0  0  0  0  0  0  0
    2.8967    1.1400    1.7118 H   0  0  0  0  0  0  0  0  0  0  0  0
    2.3027    3.6750   -0.3222 H   0  0  0  0  0  0  0  0  0  0  0  0
    4.2880   -0.7932   -1.3661 H   0  0  0  0  0  0  0  0  0  0  0  0
    4.7034   -0.4641    0.3178 H   0  0  0  0  0  0  0  0  0  0  0  0
    6.6574    0.2307   -1.2255 H   0  0  0  0  0  0  0  0  0  0  0  0
  1  2  2  0  0  0  0
  2  3  1  0  0  0  0
  2  4  1  0  0  0  0
  3  9  1  0  0  0  0
  4  5  1  0  0  0  0
  4  7  1  0  0  0  0
  4 10  1  0  0  0  0
  5  6  1  0  0  0  0
  5 11  1  0  0  0  0
  5 12  1  0  0  0  0
  6 13  1  0  0  0  0
  7  8  1  0  0  0  0
  7 14  1  0  0  0  0
  7 15  1  0  0  0  0
  8 16  1  0  0  0  0
M  END
$$$$
