CHEBI:17363
 OpenBabel04242416243D

 25 24  0  0  1  0  0  0  0  0999 V2000
    6.0030    2.3964   -2.2802 O   0  0  0  0  0  0  0  0  0  0  0  0
    5.2568    2.6644   -1.3340 C   0  0  0  0  0  0  0  0  0  0  0  0
    4.9890    4.0974   -0.8885 C   0  0  0  0  0  0  0  0  0  0  0  0
    5.6891    5.0569   -1.6607 O   0  0  0  0  0  0  0  0  0  0  0  0
    4.5304    1.5641   -0.5723 C   0  0  2  0  0  0  0  0  0  0  0  0
    3.8580    0.7245   -1.5302 O   0  0  0  0  0  0  0  0  0  0  0  0
    5.4838    0.6706    0.2362 C   0  0  2  0  0  0  0  0  0  0  0  0
    4.7189   -0.4008    0.8127 O   0  0  0  0  0  0  0  0  0  0  0  0
    6.2165    1.4035    1.3599 C   0  0  0  0  0  0  0  0  0  0  0  0
    7.1043    2.3624    0.8161 O   0  0  0  0  0  0  0  0  0  0  0  0
    7.9518    3.2803    1.8136 P   0  0  0  0  0  0  0  0  0  0  0  0
    8.8563    4.2710    1.1710 O   0  0  0  0  0  0  0  0  0  0  0  0
    6.8741    3.9586    2.7728 O   0  0  0  0  0  0  0  0  0  0  0  0
    8.7179    2.2731    2.7806 O   0  0  0  0  0  0  0  0  0  0  0  0
    5.2769    4.2161    0.1584 H   0  0  0  0  0  0  0  0  0  0  0  0
    3.9191    4.2991   -0.9928 H   0  0  0  0  0  0  0  0  0  0  0  0
    6.5354    4.6455   -1.9245 H   0  0  0  0  0  0  0  0  0  0  0  0
    3.7518    1.9904    0.0679 H   0  0  0  0  0  0  0  0  0  0  0  0
    4.4920    0.5837   -2.2641 H   0  0  0  0  0  0  0  0  0  0  0  0
    6.2150    0.2112   -0.4403 H   0  0  0  0  0  0  0  0  0  0  0  0
    4.0949   -0.6897    0.1153 H   0  0  0  0  0  0  0  0  0  0  0  0
    6.7812    0.6821    1.9612 H   0  0  0  0  0  0  0  0  0  0  0  0
    5.4956    1.8884    2.0274 H   0  0  0  0  0  0  0  0  0  0  0  0
    7.2495    4.7495    3.2024 H   0  0  0  0  0  0  0  0  0  0  0  0
    9.6104    2.0745    2.4404 H   0  0  0  0  0  0  0  0  0  0  0  0
  1  2  2  0  0  0  0
  2  3  1  0  0  0  0
  3  4  1  0  0  0  0
  3 15  1  0  0  0  0
  3 16  1  0  0  0  0
  4 17  1  0  0  0  0
  5  6  1  0  0  0  0
  5  2  1  0  0  0  0
  5 18  1  6  0  0  0
  6 19  1  0  0  0  0
  7  9  1  0  0  0  0
  7  8  1  0  0  0  0
  7  5  1  0  0  0  0
  7 20  1  6  0  0  0
  8 21  1  0  0  0  0
  9 10  1  0  0  0  0
  9 22  1  0  0  0  0
  9 23  1  0  0  0  0
 10 11  1  0  0  0  0
 11 12  2  0  0  0  0
 11 13  1  0  0  0  0
 11 14  1  0  0  0  0
 13 24  1  0  0  0  0
 14 25  1  0  0  0  0
M  END
$$$$
