CHEBI:15631
 OpenBabel04242412563D

 56 56  0  0  1  0  0  0  0  0999 V2000
    3.0581  -12.5854    0.0615 C   0  0  0  0  0  0  0  0  0  0  0  0
    2.3594  -11.3035   -0.3656 C   0  0  0  0  0  0  0  0  0  0  0  0
    3.3271  -10.1748   -0.7318 C   0  0  0  0  0  0  0  0  0  0  0  0
    4.0808   -9.6131    0.4777 C   0  0  0  0  0  0  0  0  0  0  0  0
    4.9844   -8.4382    0.0820 C   0  0  0  0  0  0  0  0  0  0  0  0
    5.6694   -7.8269    1.2762 C   0  0  0  0  0  0  0  0  0  0  0  0
    6.4756   -6.7513    1.2463 C   0  0  0  0  0  0  0  0  0  0  0  0
    6.8985   -5.9889    0.0185 C   0  0  0  0  0  0  0  0  0  0  0  0
    6.0819   -4.7613   -0.2475 C   0  0  2  0  0  0  0  0  0  0  0  0
    6.5827   -3.9898   -1.3512 O   0  0  0  0  0  0  0  0  0  0  0  0
    6.5563   -3.3317   -0.0769 C   0  0  2  0  0  0  0  0  0  0  0  0
    7.7691   -3.0205    0.6888 C   0  0  0  0  0  0  0  0  0  0  0  0
    8.9507   -2.6492    0.1649 C   0  0  0  0  0  0  0  0  0  0  0  0
   10.2093   -2.2571    0.8944 C   0  0  0  0  0  0  0  0  0  0  0  0
   10.5516   -0.9512    0.4205 O   0  0  0  0  0  0  0  0  0  0  0  0
   10.1232   -2.2384    2.4361 C   0  0  0  0  0  0  0  0  0  0  0  0
   11.4406   -1.9073    3.0914 C   0  0  0  0  0  0  0  0  0  0  0  0
   12.1317   -2.6391    3.9806 C   0  0  0  0  0  0  0  0  0  0  0  0
   11.7826   -3.9886    4.5417 C   0  0  0  0  0  0  0  0  0  0  0  0
   11.7578   -4.0080    6.0722 C   0  0  0  0  0  0  0  0  0  0  0  0
   10.6096   -3.1927    6.6663 C   0  0  0  0  0  0  0  0  0  0  0  0
   10.5803   -3.3235    8.1646 C   0  0  0  0  0  0  0  0  0  0  0  0
   11.5219   -3.5609    8.9032 O   0  0  0  0  0  0  0  0  0  0  0  0
    9.3515   -3.1107    8.6731 O   0  0  0  0  0  0  0  0  0  0  0  0
    2.3177  -13.3646    0.2703 H   0  0  0  0  0  0  0  0  0  0  0  0
    3.6509  -12.4403    0.9689 H   0  0  0  0  0  0  0  0  0  0  0  0
    3.7197  -12.9524   -0.7296 H   0  0  0  0  0  0  0  0  0  0  0  0
    1.6829  -10.9727    0.4310 H   0  0  0  0  0  0  0  0  0  0  0  0
    1.7346  -11.5254   -1.2392 H   0  0  0  0  0  0  0  0  0  0  0  0
    2.7483   -9.3666   -1.1960 H   0  0  0  0  0  0  0  0  0  0  0  0
    4.0396  -10.5281   -1.4869 H   0  0  0  0  0  0  0  0  0  0  0  0
    4.6938  -10.3982    0.9354 H   0  0  0  0  0  0  0  0  0  0  0  0
    3.3572   -9.2859    1.2349 H   0  0  0  0  0  0  0  0  0  0  0  0
    4.3791   -7.6716   -0.4166 H   0  0  0  0  0  0  0  0  0  0  0  0
    5.7380   -8.7943   -0.6303 H   0  0  0  0  0  0  0  0  0  0  0  0
    5.4770   -8.2884    2.2440 H   0  0  0  0  0  0  0  0  0  0  0  0
    6.8985   -6.3999    2.1859 H   0  0  0  0  0  0  0  0  0  0  0  0
    6.8354   -6.6371   -0.8636 H   0  0  0  0  0  0  0  0  0  0  0  0
    7.9626   -5.7448    0.1206 H   0  0  0  0  0  0  0  0  0  0  0  0
    5.0166   -4.9564   -0.2333 H   0  0  0  0  0  0  0  0  0  0  0  0
    5.7822   -2.5793    0.0469 H   0  0  0  0  0  0  0  0  0  0  0  0
    7.6491   -3.0706    1.7675 H   0  0  0  0  0  0  0  0  0  0  0  0
    9.0350   -2.6115   -0.9222 H   0  0  0  0  0  0  0  0  0  0  0  0
   11.0125   -2.9348    0.5816 H   0  0  0  0  0  0  0  0  0  0  0  0
    9.7849   -0.3767    0.5853 H   0  0  0  0  0  0  0  0  0  0  0  0
    9.7445   -3.2004    2.7912 H   0  0  0  0  0  0  0  0  0  0  0  0
    9.4073   -1.4692    2.7534 H   0  0  0  0  0  0  0  0  0  0  0  0
   11.8680   -0.9488    2.7916 H   0  0  0  0  0  0  0  0  0  0  0  0
   13.0786   -2.2269    4.3322 H   0  0  0  0  0  0  0  0  0  0  0  0
   12.5480   -4.6960    4.1999 H   0  0  0  0  0  0  0  0  0  0  0  0
   10.8280   -4.3629    4.1616 H   0  0  0  0  0  0  0  0  0  0  0  0
   12.7162   -3.6463    6.4666 H   0  0  0  0  0  0  0  0  0  0  0  0
   11.6653   -5.0503    6.4043 H   0  0  0  0  0  0  0  0  0  0  0  0
    9.6587   -3.5610    6.2644 H   0  0  0  0  0  0  0  0  0  0  0  0
   10.7057   -2.1299    6.4226 H   0  0  0  0  0  0  0  0  0  0  0  0
    9.4773   -3.2094    9.6405 H   0  0  0  0  0  0  0  0  0  0  0  0
  1  2  1  0  0  0  0
  1 25  1  0  0  0  0
  1 26  1  0  0  0  0
  1 27  1  0  0  0  0
  2  3  1  0  0  0  0
  2 28  1  0  0  0  0
  2 29  1  0  0  0  0
  3  4  1  0  0  0  0
  3 30  1  0  0  0  0
  3 31  1  0  0  0  0
  4  5  1  0  0  0  0
  4 32  1  0  0  0  0
  4 33  1  0  0  0  0
  5  6  1  0  0  0  0
  5 34  1  0  0  0  0
  5 35  1  0  0  0  0
  6  7  2  0  0  0  0
  6 36  1  0  0  0  0
  7  8  1  0  0  0  0
  7 37  1  0  0  0  0
  8  9  1  0  0  0  0
  8 38  1  0  0  0  0
  8 39  1  0  0  0  0
  9 10  1  0  0  0  0
  9 11  1  0  0  0  0
  9 40  1  1  0  0  0
 10 11  1  0  0  0  0
 11 12  1  0  0  0  0
 11 41  1  1  0  0  0
 12 13  2  0  0  0  0
 12 42  1  0  0  0  0
 13 14  1  0  0  0  0
 13 43  1  0  0  0  0
 14 15  1  0  0  0  0
 14 16  1  0  0  0  0
 14 44  1  0  0  0  0
 15 45  1  0  0  0  0
 16 17  1  0  0  0  0
 16 46  1  0  0  0  0
 16 47  1  0  0  0  0
 17 18  2  0  0  0  0
 17 48  1  0  0  0  0
 18 19  1  0  0  0  0
 18 49  1  0  0  0  0
 19 20  1  0  0  0  0
 19 50  1  0  0  0  0
 19 51  1  0  0  0  0
 20 21  1  0  0  0  0
 20 52  1  0  0  0  0
 20 53  1  0  0  0  0
 21 22  1  0  0  0  0
 21 54  1  0  0  0  0
 21 55  1  0  0  0  0
 22 23  2  0  0  0  0
 22 24  1  0  0  0  0
 24 56  1  0  0  0  0
M  END
$$$$
