CHEBI:16216
 OpenBabel04242414013D

 26 25  0  0  0  0  0  0  0  0999 V2000
    1.6267   -3.2826   -5.9334 C   0  0  0  0  0  0  0  0  0  0  0  0
    2.6575   -2.2212   -5.6533 C   0  0  0  0  0  0  0  0  0  0  0  0
    2.5254   -1.0674   -6.0524 O   0  0  0  0  0  0  0  0  0  0  0  0
    3.7514   -2.6847   -4.9499 N   0  0  0  0  0  0  0  0  0  0  0  0
    4.8522   -1.9191   -4.6555 C   0  0  0  0  0  0  0  0  0  0  0  0
    5.9649   -2.3629   -4.0373 C   0  0  0  0  0  0  0  0  0  0  0  0
    6.1572   -3.7565   -3.5669 C   0  0  0  0  0  0  0  0  0  0  0  0
    7.1414   -4.1696   -2.9794 O   0  0  0  0  0  0  0  0  0  0  0  0
    5.1121   -4.5768   -3.7858 O   0  0  0  0  0  0  0  0  0  0  0  0
    7.1481   -1.4237   -3.8524 C   0  0  0  0  0  0  0  0  0  0  0  0
    7.8032   -1.4458   -2.4660 C   0  0  0  0  0  0  0  0  0  0  0  0
    8.6081   -0.2623   -2.3306 O   0  0  0  0  0  0  0  0  0  0  0  0
    8.2028   -1.7057   -4.9210 C   0  0  0  0  0  0  0  0  0  0  0  0
    8.0887   -2.5168   -5.8288 O   0  0  0  0  0  0  0  0  0  0  0  0
    9.2859   -0.8918   -4.8227 O   0  0  0  0  0  0  0  0  0  0  0  0
    1.7060   -4.1149   -5.2285 H   0  0  0  0  0  0  0  0  0  0  0  0
    1.7668   -3.6585   -6.9504 H   0  0  0  0  0  0  0  0  0  0  0  0
    0.6280   -2.8479   -5.8360 H   0  0  0  0  0  0  0  0  0  0  0  0
    3.7916   -3.6680   -4.6828 H   0  0  0  0  0  0  0  0  0  0  0  0
    4.7865   -0.8869   -5.0007 H   0  0  0  0  0  0  0  0  0  0  0  0
    5.4285   -5.4322   -3.4203 H   0  0  0  0  0  0  0  0  0  0  0  0
    6.8114   -0.3950   -4.0493 H   0  0  0  0  0  0  0  0  0  0  0  0
    8.4783   -2.2959   -2.3310 H   0  0  0  0  0  0  0  0  0  0  0  0
    7.0547   -1.4377   -1.6675 H   0  0  0  0  0  0  0  0  0  0  0  0
    8.9564   -0.2726   -1.4167 H   0  0  0  0  0  0  0  0  0  0  0  0
    9.2438   -0.3093   -4.0252 H   0  0  0  0  0  0  0  0  0  0  0  0
  1  2  1  0  0  0  0
  1 16  1  0  0  0  0
  1 17  1  0  0  0  0
  1 18  1  0  0  0  0
  2  3  2  0  0  0  0
  2  4  1  0  0  0  0
  4  5  1  0  0  0  0
  4 19  1  0  0  0  0
  5  6  2  0  0  0  0
  5 20  1  0  0  0  0
  6  7  1  0  0  0  0
  6 10  1  0  0  0  0
  7  8  2  0  0  0  0
  7  9  1  0  0  0  0
  9 21  1  0  0  0  0
 10 11  1  0  0  0  0
 10 13  1  0  0  0  0
 10 22  1  0  0  0  0
 11 12  1  0  0  0  0
 11 23  1  0  0  0  0
 11 24  1  0  0  0  0
 12 25  1  0  0  0  0
 13 14  2  0  0  0  0
 13 15  1  0  0  0  0
 15 26  1  0  0  0  0
M  END
$$$$
