CHEBI:16043
 OpenBabel04242413403D

 28 27  0  0  1  0  0  0  0  0999 V2000
   10.7696   -1.1110   -0.2858 O   0  0  0  0  0  0  0  0  0  0  0  0
    9.9920   -1.7487    0.4191 C   0  0  0  0  0  0  0  0  0  0  0  0
    8.8726   -1.0963    1.1786 C   0  0  0  0  0  0  0  0  0  0  0  0
    7.5531   -1.2916    0.4484 C   0  0  1  0  0  0  0  0  0  0  0  0
    7.2217   -2.6904    0.4833 O   0  0  0  0  0  0  0  0  0  0  0  0
    7.5256   -0.8208   -1.0236 C   0  0  2  0  0  0  0  0  0  0  0  0
    6.1940   -1.1068   -1.5097 O   0  0  0  0  0  0  0  0  0  0  0  0
    7.8137    0.6758   -1.2069 C   0  0  2  0  0  0  0  0  0  0  0  0
    6.7643    1.4151   -0.5533 O   0  0  0  0  0  0  0  0  0  0  0  0
    7.8437    1.0767   -2.6845 C   0  0  0  0  0  0  0  0  0  0  0  0
    8.0345    2.4881   -2.7470 O   0  0  0  0  0  0  0  0  0  0  0  0
    8.5065    3.1218   -4.1367 P   0  0  0  0  0  0  0  0  0  0  0  0
    8.5938    4.6073   -4.1784 O   0  0  0  0  0  0  0  0  0  0  0  0
    9.8847    2.4086   -4.4972 O   0  0  0  0  0  0  0  0  0  0  0  0
    7.5037    2.5399   -5.2313 O   0  0  0  0  0  0  0  0  0  0  0  0
   10.0399   -2.8501    0.4756 H   0  0  0  0  0  0  0  0  0  0  0  0
    9.1042   -0.0353    1.3134 H   0  0  0  0  0  0  0  0  0  0  0  0
    8.8439   -1.5608    2.1704 H   0  0  0  0  0  0  0  0  0  0  0  0
    6.7583   -0.7883    1.0118 H   0  0  0  0  0  0  0  0  0  0  0  0
    6.4765   -2.7922   -0.1456 H   0  0  0  0  0  0  0  0  0  0  0  0
    8.2070   -1.4282   -1.6290 H   0  0  0  0  0  0  0  0  0  0  0  0
    5.6366   -0.3784   -1.1626 H   0  0  0  0  0  0  0  0  0  0  0  0
    8.7577    0.9669   -0.7358 H   0  0  0  0  0  0  0  0  0  0  0  0
    6.9144    2.3484   -0.8085 H   0  0  0  0  0  0  0  0  0  0  0  0
    6.8901    0.8525   -3.1729 H   0  0  0  0  0  0  0  0  0  0  0  0
    8.6515    0.5546   -3.2065 H   0  0  0  0  0  0  0  0  0  0  0  0
   10.4147    2.9623   -5.0987 H   0  0  0  0  0  0  0  0  0  0  0  0
    6.7620    3.1540   -5.3835 H   0  0  0  0  0  0  0  0  0  0  0  0
  1  2  2  0  0  0  0
  2  3  1  0  0  0  0
  2 16  1  0  0  0  0
  3  4  1  0  0  0  0
  3 17  1  0  0  0  0
  3 18  1  0  0  0  0
  4  5  1  0  0  0  0
  4 19  1  6  0  0  0
  5 20  1  0  0  0  0
  6  7  1  0  0  0  0
  6  4  1  0  0  0  0
  6 21  1  1  0  0  0
  7 22  1  0  0  0  0
  8 10  1  0  0  0  0
  8  9  1  0  0  0  0
  8  6  1  0  0  0  0
  8 23  1  1  0  0  0
  9 24  1  0  0  0  0
 10 11  1  0  0  0  0
 10 25  1  0  0  0  0
 10 26  1  0  0  0  0
 11 12  1  0  0  0  0
 12 13  2  0  0  0  0
 12 14  1  0  0  0  0
 12 15  1  0  0  0  0
 14 27  1  0  0  0  0
 15 28  1  0  0  0  0
M  END
$$$$
