CHEBI:17316
 OpenBabel04242416153D

 33 32  0  0  1  0  0  0  0  0999 V2000
   11.5300    4.5630    0.7263 O   0  0  0  0  0  0  0  0  0  0  0  0
   10.9508    3.5014    0.4862 C   0  0  0  0  0  0  0  0  0  0  0  0
    9.5817    3.1852    1.0502 C   0  0  2  0  0  0  0  0  0  0  0  0
    9.7890    2.5828    2.3903 N   0  0  0  0  0  0  0  0  0  0  0  0
   10.3166    3.5929    3.6180 S   0  0  0  0  0  0  0  0  0  0  0  0
    9.6235    4.8492    3.4666 O   0  0  0  0  0  0  0  0  0  0  0  0
   10.2464    2.8194    4.8309 O   0  0  0  0  0  0  0  0  0  0  0  0
   11.8591    3.8486    3.2613 O   0  0  0  0  0  0  0  0  0  0  0  0
    8.8089    2.2346    0.1199 C   0  0  1  0  0  0  0  0  0  0  0  0
    9.5073    0.9809   -0.0003 O   0  0  0  0  0  0  0  0  0  0  0  0
    8.5756    2.7815   -1.3088 C   0  0  2  0  0  0  0  0  0  0  0  0
    7.8363    1.7647   -2.0178 O   0  0  0  0  0  0  0  0  0  0  0  0
    7.7965    4.1041   -1.3692 C   0  0  2  0  0  0  0  0  0  0  0  0
    6.5244    3.8923   -0.7410 O   0  0  0  0  0  0  0  0  0  0  0  0
    7.5753    4.5667   -2.8127 C   0  0  0  0  0  0  0  0  0  0  0  0
    6.9169    5.8274   -2.7687 O   0  0  0  0  0  0  0  0  0  0  0  0
    6.5896    6.5589   -4.1817 S   0  0  0  0  0  0  0  0  0  0  0  0
    5.8772    7.7834   -3.9081 O   0  0  0  0  0  0  0  0  0  0  0  0
    7.7737    6.5350   -5.0091 O   0  0  0  0  0  0  0  0  0  0  0  0
    5.5500    5.5485   -4.8808 O   0  0  0  0  0  0  0  0  0  0  0  0
   11.4699    2.6852   -0.0454 H   0  0  0  0  0  0  0  0  0  0  0  0
    9.0101    4.1120    1.1536 H   0  0  0  0  0  0  0  0  0  0  0  0
    9.0448    1.9722    2.7270 H   0  0  0  0  0  0  0  0  0  0  0  0
   11.9167    4.5299    2.5496 H   0  0  0  0  0  0  0  0  0  0  0  0
    7.8449    1.9846    0.5805 H   0  0  0  0  0  0  0  0  0  0  0  0
    9.0533    0.4888   -0.7161 H   0  0  0  0  0  0  0  0  0  0  0  0
    9.5329    2.8786   -1.8330 H   0  0  0  0  0  0  0  0  0  0  0  0
    6.9113    1.8331   -1.6996 H   0  0  0  0  0  0  0  0  0  0  0  0
    8.3094    4.8936   -0.8107 H   0  0  0  0  0  0  0  0  0  0  0  0
    6.0135    4.7190   -0.8594 H   0  0  0  0  0  0  0  0  0  0  0  0
    6.9387    3.8596   -3.3549 H   0  0  0  0  0  0  0  0  0  0  0  0
    8.5365    4.6684   -3.3273 H   0  0  0  0  0  0  0  0  0  0  0  0
    5.6573    5.6412   -5.8500 H   0  0  0  0  0  0  0  0  0  0  0  0
  1  2  2  0  0  0  0
  2 21  1  0  0  0  0
  3  9  1  0  0  0  0
  3  4  1  0  0  0  0
  3  2  1  0  0  0  0
  3 22  1  1  0  0  0
  4  5  1  0  0  0  0
  4 23  1  0  0  0  0
  5  6  2  0  0  0  0
  5  7  2  0  0  0  0
  5  8  1  0  0  0  0
  8 24  1  0  0  0  0
  9 10  1  0  0  0  0
  9 25  1  6  0  0  0
 10 26  1  0  0  0  0
 11 12  1  0  0  0  0
 11  9  1  0  0  0  0
 11 27  1  1  0  0  0
 12 28  1  0  0  0  0
 13 15  1  0  0  0  0
 13 14  1  0  0  0  0
 13 11  1  0  0  0  0
 13 29  1  1  0  0  0
 14 30  1  0  0  0  0
 15 16  1  0  0  0  0
 15 31  1  0  0  0  0
 15 32  1  0  0  0  0
 16 17  1  0  0  0  0
 17 18  2  0  0  0  0
 17 19  2  0  0  0  0
 17 20  1  0  0  0  0
 20 33  1  0  0  0  0
M  END
$$$$
