CHEBI:17861
 OpenBabel04242417433D

 14 14  0  0  0  0  0  0  0  0999 V2000
    2.8375    0.8845   -0.8254 O   0  0  0  0  0  0  0  0  0  0  0  0
    2.3523   -0.0516   -0.1155 C   0  0  0  0  0  0  0  0  0  0  0  0
    1.3239   -0.7444   -0.3950 O   0  5  0  0  0  0  0  0  0  0  0  0
    3.0664   -0.3715    1.1851 C   0  0  0  0  0  0  0  0  0  0  0  0
    2.6022   -1.3953    2.0289 C   0  0  0  0  0  0  0  0  0  0  0  0
    3.2580   -1.6916    3.2266 C   0  0  0  0  0  0  0  0  0  0  0  0
    4.3878   -0.9635    3.5918 C   0  0  0  0  0  0  0  0  0  0  0  0
    5.1985   -1.3267    5.0682 Cl  0  0  0  0  0  0  0  0  0  0  0  0
    4.8675    0.0559    2.7728 C   0  0  0  0  0  0  0  0  0  0  0  0
    4.2085    0.3486    1.5759 C   0  0  0  0  0  0  0  0  0  0  0  0
    1.7179   -1.9605    1.7369 H   0  0  0  0  0  0  0  0  0  0  0  0
    2.8790   -2.4870    3.8598 H   0  0  0  0  0  0  0  0  0  0  0  0
    5.7470    0.6270    3.0511 H   0  0  0  0  0  0  0  0  0  0  0  0
    4.5780    1.1444    0.9303 H   0  0  0  0  0  0  0  0  0  0  0  0
  1  2  2  0  0  0  0
  2  3  1  0  0  0  0
  2  4  1  0  0  0  0
  4  5  1  0  0  0  0
  4 10  2  0  0  0  0
  5  6  2  0  0  0  0
  5 11  1  0  0  0  0
  6  7  1  0  0  0  0
  6 12  1  0  0  0  0
  7  8  1  0  0  0  0
  7  9  2  0  0  0  0
  9 10  1  0  0  0  0
  9 13  1  0  0  0  0
 10 14  1  0  0  0  0
M  CHG  1   3  -1
M  END
$$$$
