CHEBI:17422
 OpenBabel04242416323D

 81 86  0  0  1  0  0  0  0  0999 V2000
   17.5683    8.9217   -8.2941 N   0  0  0  0  0  0  0  0  0  0  0  0
   17.1937    8.4108   -7.0585 C   0  0  0  0  0  0  0  0  0  0  0  0
   15.9710    7.8446   -6.9445 N   0  0  0  0  0  0  0  0  0  0  0  0
   15.6052    7.3466   -5.7440 C   0  0  0  0  0  0  0  0  0  0  0  0
   16.2989    7.3525   -4.5868 N   0  0  0  0  0  0  0  0  0  0  0  0
   17.5023    7.9266   -4.7522 C   0  0  0  0  0  0  0  0  0  0  0  0
   18.0122    8.4760   -5.9183 C   0  0  0  0  0  0  0  0  0  0  0  0
   19.2632    9.0168   -5.7005 N   0  0  0  0  0  0  0  0  0  0  0  0
   19.5225    8.7622   -4.4354 C   0  0  0  0  0  0  0  0  0  0  0  0
   18.4849    8.1116   -3.8183 N   0  0  0  0  0  0  0  0  0  0  0  0
   18.4612    7.7164   -2.4266 C   0  0  2  0  0  0  0  0  0  0  0  0
   18.3617    6.2816   -2.3464 O   0  0  0  0  0  0  0  0  0  0  0  0
   17.4879    5.9593   -1.2369 C   0  0  2  0  0  0  0  0  0  0  0  0
   16.2218    5.2992   -1.7862 C   0  0  0  0  0  0  0  0  0  0  0  0
   15.4091    4.8371   -0.7201 O   0  0  0  0  0  0  0  0  0  0  0  0
   14.0106    4.1594   -1.1289 P   0  0  0  0  0  0  0  0  0  0  0  0
   14.1073    3.1368   -2.2098 O   0  0  0  0  0  0  0  0  0  0  0  0
   13.5204    3.5461    0.2620 O   0  0  0  0  0  0  0  0  0  0  0  0
   13.0369    5.3828   -1.3944 O   0  0  0  0  0  0  0  0  0  0  0  0
   11.4602    5.2280   -1.5227 P   0  0  0  0  0  0  0  0  0  0  0  0
   10.6885    5.3049   -0.2488 O   0  0  0  0  0  0  0  0  0  0  0  0
   11.0861    6.4349   -2.5147 O   0  0  0  0  0  0  0  0  0  0  0  0
   11.2234    3.9441   -2.4156 O   0  0  0  0  0  0  0  0  0  0  0  0
    9.8147    3.5074   -2.9931 P   0  0  0  0  0  0  0  0  0  0  0  0
    8.7619    4.5628   -2.8965 O   0  0  0  0  0  0  0  0  0  0  0  0
    9.4591    2.2049   -2.1312 O   0  0  0  0  0  0  0  0  0  0  0  0
   10.1441    2.9445   -4.4302 O   0  0  0  0  0  0  0  0  0  0  0  0
    9.1656    2.7512   -5.6528 P   0  0  0  0  0  0  0  0  0  0  0  0
    9.7569    2.0591   -6.8368 O   0  0  0  0  0  0  0  0  0  0  0  0
    7.9368    1.9149   -5.0594 O   0  0  0  0  0  0  0  0  0  0  0  0
    8.5217    4.1818   -5.9654 O   0  0  0  0  0  0  0  0  0  0  0  0
    8.3495    4.5571   -7.3257 C   0  0  0  0  0  0  0  0  0  0  0  0
    7.2701    5.6327   -7.4231 C   0  0  1  0  0  0  0  0  0  0  0  0
    7.6743    6.7933   -6.6601 O   0  0  0  0  0  0  0  0  0  0  0  0
    7.3214    7.9532   -7.4292 C   0  0  1  0  0  0  0  0  0  0  0  0
    8.1462    9.0719   -7.0204 N   0  0  0  0  0  0  0  0  0  0  0  0
    9.1586    9.0750   -6.0988 C   0  0  0  0  0  0  0  0  0  0  0  0
    9.6331   10.2869   -5.8923 N   0  0  0  0  0  0  0  0  0  0  0  0
    8.8838   11.1044   -6.7132 C   0  0  0  0  0  0  0  0  0  0  0  0
    8.8776   12.4928   -6.9252 C   0  0  0  0  0  0  0  0  0  0  0  0
    9.7011   13.3712   -6.2354 N   0  0  0  0  0  0  0  0  0  0  0  0
    8.0298   12.9990   -7.8502 N   0  0  0  0  0  0  0  0  0  0  0  0
    7.2128   12.1487   -8.5091 C   0  0  0  0  0  0  0  0  0  0  0  0
    7.1205   10.8046   -8.3867 N   0  0  0  0  0  0  0  0  0  0  0  0
    7.9813   10.3595   -7.4540 C   0  0  0  0  0  0  0  0  0  0  0  0
    7.5299    7.5377   -8.8836 C   0  0  2  0  0  0  0  0  0  0  0  0
    6.7932    8.2953   -9.8458 O   0  0  0  0  0  0  0  0  0  0  0  0
    7.0251    6.0993   -8.8615 C   0  0  2  0  0  0  0  0  0  0  0  0
    5.6179    6.0856   -9.1351 O   0  0  0  0  0  0  0  0  0  0  0  0
   17.2062    7.2710   -0.5005 C   0  0  1  0  0  0  0  0  0  0  0  0
   18.2481    7.5314    0.4544 O   0  0  0  0  0  0  0  0  0  0  0  0
   17.3013    8.3003   -1.6150 C   0  0  1  0  0  0  0  0  0  0  0  0
   17.5632    9.5989   -1.0795 O   0  0  0  0  0  0  0  0  0  0  0  0
   16.7727    9.1282   -8.8825 H   0  0  0  0  0  0  0  0  0  0  0  0
   18.3124    9.6081   -8.2408 H   0  0  0  0  0  0  0  0  0  0  0  0
   14.6219    6.8856   -5.7060 H   0  0  0  0  0  0  0  0  0  0  0  0
   20.4384    9.0252   -3.9198 H   0  0  0  0  0  0  0  0  0  0  0  0
   19.4247    8.0081   -1.9892 H   0  0  0  0  0  0  0  0  0  0  0  0
   18.0186    5.2561   -0.5849 H   0  0  0  0  0  0  0  0  0  0  0  0
   16.4976    4.4531   -2.4257 H   0  0  0  0  0  0  0  0  0  0  0  0
   15.6460    5.9959   -2.4024 H   0  0  0  0  0  0  0  0  0  0  0  0
   13.9108    2.6657    0.4150 H   0  0  0  0  0  0  0  0  0  0  0  0
   10.1445    6.6858   -2.4105 H   0  0  0  0  0  0  0  0  0  0  0  0
    8.5619    2.2628   -1.7503 H   0  0  0  0  0  0  0  0  0  0  0  0
    7.6558    1.2348   -5.7009 H   0  0  0  0  0  0  0  0  0  0  0  0
    8.0502    3.6851   -7.9169 H   0  0  0  0  0  0  0  0  0  0  0  0
    9.3106    4.9319   -7.6919 H   0  0  0  0  0  0  0  0  0  0  0  0
    6.3488    5.2622   -6.9577 H   0  0  0  0  0  0  0  0  0  0  0  0
    6.2794    8.2227   -7.2157 H   0  0  0  0  0  0  0  0  0  0  0  0
    9.4996    8.1751   -5.6004 H   0  0  0  0  0  0  0  0  0  0  0  0
   10.5124   12.9299   -5.8177 H   0  0  0  0  0  0  0  0  0  0  0  0
    9.8313   14.2483   -6.7205 H   0  0  0  0  0  0  0  0  0  0  0  0
    6.5431   12.6082   -9.2315 H   0  0  0  0  0  0  0  0  0  0  0  0
    8.5937    7.5575   -9.1494 H   0  0  0  0  0  0  0  0  0  0  0  0
    6.9037    9.2457   -9.6236 H   0  0  0  0  0  0  0  0  0  0  0  0
    7.5048    5.4742   -9.6208 H   0  0  0  0  0  0  0  0  0  0  0  0
    5.4872    6.7546   -9.8415 H   0  0  0  0  0  0  0  0  0  0  0  0
   16.2560    7.2960    0.0398 H   0  0  0  0  0  0  0  0  0  0  0  0
   18.2095    8.4954    0.6236 H   0  0  0  0  0  0  0  0  0  0  0  0
   16.3582    8.3312   -2.1693 H   0  0  0  0  0  0  0  0  0  0  0  0
   17.3542   10.2492   -1.7762 H   0  0  0  0  0  0  0  0  0  0  0  0
  1  2  1  0  0  0  0
  1 54  1  0  0  0  0
  1 55  1  0  0  0  0
  2  3  1  0  0  0  0
  2  7  2  0  0  0  0
  3  4  2  0  0  0  0
  4  5  1  0  0  0  0
  4 56  1  0  0  0  0
  5  6  2  0  0  0  0
  6  7  1  0  0  0  0
  6 10  1  0  0  0  0
  7  8  1  0  0  0  0
  8  9  2  0  0  0  0
  9 10  1  0  0  0  0
  9 57  1  0  0  0  0
 10 11  1  0  0  0  0
 11 12  1  0  0  0  0
 11 52  1  0  0  0  0
 11 58  1  1  0  0  0
 12 13  1  0  0  0  0
 13 14  1  0  0  0  0
 13 50  1  0  0  0  0
 13 59  1  1  0  0  0
 14 15  1  0  0  0  0
 14 60  1  0  0  0  0
 14 61  1  0  0  0  0
 15 16  1  0  0  0  0
 16 17  2  0  0  0  0
 16 18  1  0  0  0  0
 16 19  1  0  0  0  0
 18 62  1  0  0  0  0
 19 20  1  0  0  0  0
 20 21  2  0  0  0  0
 20 22  1  0  0  0  0
 20 23  1  0  0  0  0
 22 63  1  0  0  0  0
 23 24  1  0  0  0  0
 24 25  2  0  0  0  0
 24 26  1  0  0  0  0
 24 27  1  0  0  0  0
 26 64  1  0  0  0  0
 27 28  1  0  0  0  0
 28 29  2  0  0  0  0
 28 30  1  0  0  0  0
 28 31  1  0  0  0  0
 30 65  1  0  0  0  0
 31 32  1  0  0  0  0
 32 33  1  0  0  0  0
 32 66  1  0  0  0  0
 32 67  1  0  0  0  0
 33 34  1  0  0  0  0
 33 48  1  0  0  0  0
 33 68  1  1  0  0  0
 34 35  1  0  0  0  0
 35 36  1  0  0  0  0
 35 46  1  0  0  0  0
 35 69  1  1  0  0  0
 36 37  1  0  0  0  0
 36 45  1  0  0  0  0
 37 38  2  0  0  0  0
 37 70  1  0  0  0  0
 38 39  1  0  0  0  0
 39 40  1  0  0  0  0
 39 45  2  0  0  0  0
 40 41  1  0  0  0  0
 40 42  2  0  0  0  0
 41 71  1  0  0  0  0
 41 72  1  0  0  0  0
 42 43  1  0  0  0  0
 43 44  2  0  0  0  0
 43 73  1  0  0  0  0
 44 45  1  0  0  0  0
 46 47  1  0  0  0  0
 46 48  1  0  0  0  0
 46 74  1  6  0  0  0
 47 75  1  0  0  0  0
 48 49  1  0  0  0  0
 48 76  1  6  0  0  0
 49 77  1  0  0  0  0
 50 51  1  0  0  0  0
 50 52  1  0  0  0  0
 50 78  1  1  0  0  0
 51 79  1  0  0  0  0
 52 53  1  0  0  0  0
 52 80  1  6  0  0  0
 53 81  1  0  0  0  0
M  END
$$$$
