CHEBI:4309
 OpenBabel04242410573D

 98100  0  0  1  0  0  0  0  0999 V2000
   11.0643    2.0936   10.9249 C   0  0  0  0  0  0  0  0  0  0  0  0
   11.9010    3.2096   10.3038 C   0  0  0  0  0  0  0  0  0  0  0  0
   11.1218    4.1326    9.4472 N   0  0  0  0  0  0  0  0  0  0  0  0
   10.1754    4.9155   10.2743 C   0  0  0  0  0  0  0  0  0  0  0  0
    9.2746    5.8728    9.4966 C   0  0  0  0  0  0  0  0  0  0  0  0
   12.0134    5.0107    8.6537 C   0  0  0  0  0  0  0  0  0  0  0  0
   12.7791    4.2556    7.5715 C   0  0  0  0  0  0  0  0  0  0  0  0
   13.7413    5.3345    6.5189 S   0  0  0  0  0  0  0  0  0  0  0  0
   14.4516    4.4815    5.5834 O   0  0  0  0  0  0  0  0  0  0  0  0
   12.8600    6.3724    6.0186 O   0  0  0  0  0  0  0  0  0  0  0  0
   14.9527    6.1366    7.5695 C   0  0  2  0  0  0  0  0  0  0  0  0
   15.8656    7.0743    6.7749 C   0  0  0  0  0  0  0  0  0  0  0  0
   16.9641    6.1616    6.2504 C   0  0  0  0  0  0  0  0  0  0  0  0
   17.0518    5.0844    7.2274 N   0  0  0  0  0  0  0  0  0  0  0  0
   17.7004    3.8695    7.0240 C   0  0  0  0  0  0  0  0  0  0  0  0
   17.5771    2.9498    7.8358 O   0  0  0  0  0  0  0  0  0  0  0  0
   18.4548    3.6791    5.7853 C   0  0  0  0  0  0  0  0  0  0  0  0
   18.6695    2.4562    5.1898 C   0  0  0  0  0  0  0  0  0  0  0  0
   19.3899    2.6461    4.0537 O   0  0  0  0  0  0  0  0  0  0  0  0
   19.6072    3.9965    4.0094 C   0  0  0  0  0  0  0  0  0  0  0  0
   19.0625    4.6611    5.0135 N   0  0  0  0  0  0  0  0  0  0  0  0
   20.5173    4.5042    2.9508 C   0  0  0  0  0  0  0  0  0  0  0  0
   21.7195    3.5896    2.8024 C   0  0  0  0  0  0  0  0  0  0  0  0
   21.7311    2.7155    1.9273 O   0  0  0  0  0  0  0  0  0  0  0  0
   22.9584    3.7977    3.6700 C   0  0  0  0  0  0  0  0  0  0  0  0
   22.6323    4.1233    5.1220 C   0  0  2  0  0  0  0  0  0  0  0  0
   22.8470    5.5202    5.3242 O   0  0  0  0  0  0  0  0  0  0  0  0
   23.3673    3.3621    6.1878 C   0  0  0  0  0  0  0  0  0  0  0  0
   23.0475    2.1078    6.5702 C   0  0  0  0  0  0  0  0  0  0  0  0
   22.1572    1.1603    5.8062 C   0  0  0  0  0  0  0  0  0  0  0  0
   23.4301    1.5788    7.8706 C   0  0  0  0  0  0  0  0  0  0  0  0
   23.1210    2.2404    8.9983 C   0  0  0  0  0  0  0  0  0  0  0  0
   23.0952    1.6407   10.3686 C   0  0  0  0  0  0  0  0  0  0  0  0
   21.7170    1.7626   10.7982 N   0  0  0  0  0  0  0  0  0  0  0  0
   21.3441    2.7512   11.6723 C   0  0  0  0  0  0  0  0  0  0  0  0
   22.1248    3.3590   12.3942 O   0  0  0  0  0  0  0  0  0  0  0  0
   19.8957    3.0937   11.5899 C   0  0  0  0  0  0  0  0  0  0  0  0
   19.4651    4.1739   12.2606 C   0  0  0  0  0  0  0  0  0  0  0  0
   18.0879    4.8039   12.2585 C   0  0  1  0  0  0  0  0  0  0  0  0
   16.9653    3.7651   12.1527 C   0  0  0  0  0  0  0  0  0  0  0  0
   17.9366    5.9927   11.2443 C   0  0  1  0  0  0  0  0  0  0  0  0
   19.1963    6.8990   11.1006 C   0  0  0  0  0  0  0  0  0  0  0  0
   19.5624    7.6012   12.4128 C   0  0  0  0  0  0  0  0  0  0  0  0
   19.0088    7.9585   10.0060 C   0  0  0  0  0  0  0  0  0  0  0  0
   17.5750    5.5151    9.9189 O   0  0  0  0  0  0  0  0  0  0  0  0
   16.2517    5.5521    9.6055 C   0  0  0  0  0  0  0  0  0  0  0  0
   15.3559    5.8502   10.3921 O   0  0  0  0  0  0  0  0  0  0  0  0
   15.9326    5.1299    8.1703 C   0  0  1  0  0  0  0  0  0  0  0  0
   11.7225    1.3671   11.4140 H   0  0  0  0  0  0  0  0  0  0  0  0
   10.4890    1.5602   10.1610 H   0  0  0  0  0  0  0  0  0  0  0  0
   10.3747    2.4672   11.6868 H   0  0  0  0  0  0  0  0  0  0  0  0
   12.6682    2.7024    9.7113 H   0  0  0  0  0  0  0  0  0  0  0  0
   12.4287    3.7609   11.0923 H   0  0  0  0  0  0  0  0  0  0  0  0
   10.7114    5.4789   11.0483 H   0  0  0  0  0  0  0  0  0  0  0  0
    9.4970    4.2260   10.7880 H   0  0  0  0  0  0  0  0  0  0  0  0
    8.4616    6.2228   10.1419 H   0  0  0  0  0  0  0  0  0  0  0  0
    8.8246    5.3817    8.6280 H   0  0  0  0  0  0  0  0  0  0  0  0
    9.8193    6.7599    9.1595 H   0  0  0  0  0  0  0  0  0  0  0  0
   12.6969    5.5511    9.3175 H   0  0  0  0  0  0  0  0  0  0  0  0
   11.4187    5.7671    8.1334 H   0  0  0  0  0  0  0  0  0  0  0  0
   12.0815    3.7330    6.9065 H   0  0  0  0  0  0  0  0  0  0  0  0
   13.4676    3.5112    7.9740 H   0  0  0  0  0  0  0  0  0  0  0  0
   14.3763    6.7138    8.2984 H   0  0  0  0  0  0  0  0  0  0  0  0
   16.3040    7.8149    7.4556 H   0  0  0  0  0  0  0  0  0  0  0  0
   15.3612    7.6156    5.9693 H   0  0  0  0  0  0  0  0  0  0  0  0
   17.9243    6.6809    6.1799 H   0  0  0  0  0  0  0  0  0  0  0  0
   16.6996    5.7546    5.2696 H   0  0  0  0  0  0  0  0  0  0  0  0
   18.3887    1.4396    5.4245 H   0  0  0  0  0  0  0  0  0  0  0  0
   20.8612    5.5192    3.1714 H   0  0  0  0  0  0  0  0  0  0  0  0
   19.9864    4.5432    1.9935 H   0  0  0  0  0  0  0  0  0  0  0  0
   23.5433    4.5966    3.1997 H   0  0  0  0  0  0  0  0  0  0  0  0
   23.5435    2.8723    3.6042 H   0  0  0  0  0  0  0  0  0  0  0  0
   21.5818    3.9654    5.3462 H   0  0  0  0  0  0  0  0  0  0  0  0
   22.5446    5.7284    6.2263 H   0  0  0  0  0  0  0  0  0  0  0  0
   24.0476    3.9461    6.8059 H   0  0  0  0  0  0  0  0  0  0  0  0
   21.8470    1.5495    4.8358 H   0  0  0  0  0  0  0  0  0  0  0  0
   21.2504    0.9368    6.3787 H   0  0  0  0  0  0  0  0  0  0  0  0
   22.6840    0.2184    5.6143 H   0  0  0  0  0  0  0  0  0  0  0  0
   23.7679    0.5454    7.9083 H   0  0  0  0  0  0  0  0  0  0  0  0
   22.7358    3.2577    8.9381 H   0  0  0  0  0  0  0  0  0  0  0  0
   23.7762    2.1750   11.0368 H   0  0  0  0  0  0  0  0  0  0  0  0
   23.3496    0.5772   10.3604 H   0  0  0  0  0  0  0  0  0  0  0  0
   21.0175    1.3547   10.1936 H   0  0  0  0  0  0  0  0  0  0  0  0
   19.2537    2.5231   10.9325 H   0  0  0  0  0  0  0  0  0  0  0  0
   20.1908    4.6994   12.8841 H   0  0  0  0  0  0  0  0  0  0  0  0
   17.9830    5.2436   13.2614 H   0  0  0  0  0  0  0  0  0  0  0  0
   16.9440    3.2716   11.1758 H   0  0  0  0  0  0  0  0  0  0  0  0
   15.9904    4.2336   12.3221 H   0  0  0  0  0  0  0  0  0  0  0  0
   17.0812    2.9864   12.9152 H   0  0  0  0  0  0  0  0  0  0  0  0
   17.1335    6.6396   11.6237 H   0  0  0  0  0  0  0  0  0  0  0  0
   20.0471    6.2845   10.7805 H   0  0  0  0  0  0  0  0  0  0  0  0
   18.7637    8.2779   12.7340 H   0  0  0  0  0  0  0  0  0  0  0  0
   20.4757    8.1941   12.2889 H   0  0  0  0  0  0  0  0  0  0  0  0
   19.7479    6.8952   13.2257 H   0  0  0  0  0  0  0  0  0  0  0  0
   18.1338    8.5851   10.2067 H   0  0  0  0  0  0  0  0  0  0  0  0
   18.8826    7.4961    9.0219 H   0  0  0  0  0  0  0  0  0  0  0  0
   19.8871    8.6110    9.9457 H   0  0  0  0  0  0  0  0  0  0  0  0
   15.5069    4.1264    8.2615 H   0  0  0  0  0  0  0  0  0  0  0  0
  1  2  1  0  0  0  0
  1 49  1  0  0  0  0
  1 50  1  0  0  0  0
  1 51  1  0  0  0  0
  2  3  1  0  0  0  0
  2 52  1  0  0  0  0
  2 53  1  0  0  0  0
  3  4  1  0  0  0  0
  3  6  1  0  0  0  0
  4  5  1  0  0  0  0
  4 54  1  0  0  0  0
  4 55  1  0  0  0  0
  5 56  1  0  0  0  0
  5 57  1  0  0  0  0
  5 58  1  0  0  0  0
  6  7  1  0  0  0  0
  6 59  1  0  0  0  0
  6 60  1  0  0  0  0
  7  8  1  0  0  0  0
  7 61  1  0  0  0  0
  7 62  1  0  0  0  0
  8  9  2  0  0  0  0
  8 10  2  0  0  0  0
  8 11  1  0  0  0  0
 11 12  1  0  0  0  0
 11 48  1  0  0  0  0
 11 63  1  1  0  0  0
 12 13  1  0  0  0  0
 12 64  1  0  0  0  0
 12 65  1  0  0  0  0
 13 14  1  0  0  0  0
 13 66  1  0  0  0  0
 13 67  1  0  0  0  0
 14 15  1  0  0  0  0
 14 48  1  0  0  0  0
 15 17  1  0  0  0  0
 15 16  2  0  0  0  0
 17 18  2  0  0  0  0
 17 21  1  0  0  0  0
 18 19  1  0  0  0  0
 18 68  1  0  0  0  0
 19 20  1  0  0  0  0
 20 21  2  0  0  0  0
 20 22  1  0  0  0  0
 22 23  1  0  0  0  0
 22 69  1  0  0  0  0
 22 70  1  0  0  0  0
 23 25  1  0  0  0  0
 23 24  2  0  0  0  0
 25 26  1  0  0  0  0
 25 71  1  0  0  0  0
 25 72  1  0  0  0  0
 26 28  1  0  0  0  0
 26 27  1  0  0  0  0
 26 73  1  1  0  0  0
 27 74  1  0  0  0  0
 28 29  2  0  0  0  0
 28 75  1  0  0  0  0
 29 31  1  0  0  0  0
 29 30  1  0  0  0  0
 30 76  1  0  0  0  0
 30 77  1  0  0  0  0
 30 78  1  0  0  0  0
 31 32  2  0  0  0  0
 31 79  1  0  0  0  0
 32 33  1  0  0  0  0
 32 80  1  0  0  0  0
 33 34  1  0  0  0  0
 33 81  1  0  0  0  0
 33 82  1  0  0  0  0
 34 35  1  0  0  0  0
 34 83  1  0  0  0  0
 35 37  1  0  0  0  0
 35 36  2  0  0  0  0
 37 38  2  0  0  0  0
 37 84  1  0  0  0  0
 38 39  1  0  0  0  0
 38 85  1  0  0  0  0
 39 41  1  0  0  0  0
 39 40  1  0  0  0  0
 39 86  1  6  0  0  0
 40 87  1  0  0  0  0
 40 88  1  0  0  0  0
 40 89  1  0  0  0  0
 41 45  1  0  0  0  0
 41 42  1  0  0  0  0
 41 90  1  1  0  0  0
 42 43  1  0  0  0  0
 42 44  1  0  0  0  0
 42 91  1  0  0  0  0
 43 92  1  0  0  0  0
 43 93  1  0  0  0  0
 43 94  1  0  0  0  0
 44 95  1  0  0  0  0
 44 96  1  0  0  0  0
 44 97  1  0  0  0  0
 45 46  1  0  0  0  0
 46 48  1  0  0  0  0
 46 47  2  0  0  0  0
 48 98  1  1  0  0  0
M  END
$$$$
