aconicumine_A
 OpenBabel04252411233D

 39 44  0  0  1  0  0  0  0  0999 V2000
   -0.4176    0.1541    0.7038 C   0  0  0  0  0  0  0  0  0  0  0  0
    0.8891   -0.0851    1.4319 C   0  0  0  0  0  0  0  0  0  0  0  0
    1.8051   -0.3183    0.2621 C   0  0  0  0  0  0  0  0  0  0  0  0
    1.5723    0.9378   -0.6506 C   0  0  0  0  0  0  0  0  0  0  0  0
    0.0181    1.3969   -0.5662 C   0  0  0  0  0  0  0  0  0  0  0  0
   -1.3232    1.2397   -2.1836 C   0  0  2  0  0  0  0  0  0  0  0  0
   -0.2570    1.6273   -2.8721 C   0  0  2  0  0  0  0  0  0  0  0  0
   -0.8833    0.1936   -1.7894 C   0  0  0  0  0  0  0  0  0  0  0  0
   -1.8831    1.1646   -0.4139 O   0  0  0  0  0  0  0  0  0  0  0  0
   -2.2697    2.5780   -0.9397 C   0  0  1  0  0  0  0  0  0  0  0  0
   -0.9002    3.1421   -2.0269 C   0  0  0  0  0  0  0  0  0  0  0  0
   -3.4718    2.1658   -1.6725 N   0  0  0  0  0  0  0  0  0  0  0  0
   -2.9663    0.9184   -2.2732 C   0  0  2  0  0  0  0  0  0  0  0  0
   -3.1398   -0.3448   -1.5424 O   0  0  0  0  0  0  0  0  0  0  0  0
   -1.8138   -0.9430   -1.4659 C   0  0  0  0  0  0  0  0  0  0  0  0
   -1.1209   -1.2004    0.0230 C   0  0  0  0  0  0  0  0  0  0  0  0
    0.0256   -2.2526   -0.0761 C   0  0  0  0  0  0  0  0  0  0  0  0
    1.4548   -1.6960   -0.3754 C   0  0  0  0  0  0  0  0  0  0  0  0
   -1.1165    0.5895    1.4361 H   0  0  0  0  0  0  0  0  0  0  0  0
    0.8453   -0.9212    2.1359 H   0  0  0  0  0  0  0  0  0  0  0  0
    1.1877    0.8090    1.9918 H   0  0  0  0  0  0  0  0  0  0  0  0
    2.8570   -0.3338    0.5693 H   0  0  0  0  0  0  0  0  0  0  0  0
    1.9779    0.7274   -1.6419 H   0  0  0  0  0  0  0  0  0  0  0  0
    2.1625    1.7737   -0.2515 H   0  0  0  0  0  0  0  0  0  0  0  0
   -0.0365    2.3534   -0.0179 H   0  0  0  0  0  0  0  0  0  0  0  0
   -1.6468    1.8344   -3.1154 H   0  0  0  0  0  0  0  0  0  0  0  0
    0.8083    1.6501   -2.7175 H   0  0  0  0  0  0  0  0  0  0  0  0
    0.0633   -0.3181   -1.5694 H   0  0  0  0  0  0  0  0  0  0  0  0
   -2.4345    3.2648   -0.1053 H   0  0  0  0  0  0  0  0  0  0  0  0
   -0.0992    3.6356   -1.4661 H   0  0  0  0  0  0  0  0  0  0  0  0
   -1.3030    3.8445   -2.7702 H   0  0  0  0  0  0  0  0  0  0  0  0
   -3.6474    2.8451   -2.4048 H   0  0  0  0  0  0  0  0  0  0  0  0
   -3.3169    0.7509   -3.3005 H   0  0  0  0  0  0  0  0  0  0  0  0
   -1.7458   -1.8115   -2.1264 H   0  0  0  0  0  0  0  0  0  0  0  0
   -1.9022   -1.5678    0.6987 H   0  0  0  0  0  0  0  0  0  0  0  0
   -0.2240   -3.0321   -0.8050 H   0  0  0  0  0  0  0  0  0  0  0  0
    0.0762   -2.7675    0.8931 H   0  0  0  0  0  0  0  0  0  0  0  0
    1.6397   -1.6741   -1.4562 H   0  0  0  0  0  0  0  0  0  0  0  0
    2.1657   -2.4366    0.0155 H   0  0  0  0  0  0  0  0  0  0  0  0
  1  2  1  0  0  0  0
  1  5  1  0  0  0  0
  1 16  1  0  0  0  0
  1 19  1  0  0  0  0
  2  3  1  0  0  0  0
  2 20  1  0  0  0  0
  2 21  1  0  0  0  0
  3  4  1  0  0  0  0
  3 18  1  0  0  0  0
  3 22  1  0  0  0  0
  4  5  1  0  0  0  0
  4 23  1  0  0  0  0
  4 24  1  0  0  0  0
  5  6  1  0  0  0  0
  5 25  1  0  0  0  0
  6  7  1  0  0  0  0
  6 13  1  0  0  0  0
  6 26  1  6  0  0  0
  7  8  1  0  0  0  0
  7 11  1  0  0  0  0
  7 27  1  6  0  0  0
  8  9  1  0  0  0  0
  8 15  1  0  0  0  0
  8 28  1  0  0  0  0
  9 10  1  0  0  0  0
 10 11  1  0  0  0  0
 10 12  1  0  0  0  0
 10 29  1  1  0  0  0
 11 30  1  0  0  0  0
 11 31  1  0  0  0  0
 12 13  1  0  0  0  0
 12 32  1  0  0  0  0
 13 14  1  0  0  0  0
 13 33  1  6  0  0  0
 14 15  1  0  0  0  0
 15 16  1  0  0  0  0
 15 34  1  0  0  0  0
 16 17  1  0  0  0  0
 16 35  1  0  0  0  0
 17 18  1  0  0  0  0
 17 36  1  0  0  0  0
 17 37  1  0  0  0  0
 18 38  1  0  0  0  0
 18 39  1  0  0  0  0
M  END
$$$$
