arboduridine
 OpenBabel04252411233D

 27 30  0  0  0  0  0  0  0  0999 V2000
   -0.5176    0.0648    0.4778 C   0  0  0  0  0  0  0  0  0  0  0  0
   -0.8919    0.3808   -1.2775 C   0  0  0  0  0  0  0  0  0  0  0  0
   -1.9407   -0.2955   -0.6591 C   0  0  0  0  0  0  0  0  0  0  0  0
   -1.8279    1.2527    0.1363 O   0  0  0  0  0  0  0  0  0  0  0  0
   -0.2816    1.4313    0.6034 C   0  0  0  0  0  0  0  0  0  0  0  0
    1.0915    1.4255   -0.2460 C   0  0  0  0  0  0  0  0  0  0  0  0
   -0.8445   -1.6017   -0.4212 N   0  0  0  0  0  0  0  0  0  0  0  0
    0.0801   -1.2181    0.6698 C   0  0  0  0  0  0  0  0  0  0  0  0
    1.5793   -0.9910    0.6121 C   0  0  0  0  0  0  0  0  0  0  0  0
    1.8174   -0.0426   -0.5511 C   0  0  0  0  0  0  0  0  0  0  0  0
    1.3832   -0.9296   -1.7822 C   0  0  0  0  0  0  0  0  0  0  0  0
    0.1324   -1.9442   -1.5386 C   0  0  0  0  0  0  0  0  0  0  0  0
   -1.3199   -0.0965    1.2851 H   0  0  0  0  0  0  0  0  0  0  0  0
   -0.6356   -0.1189   -2.1984 H   0  0  0  0  0  0  0  0  0  0  0  0
   -1.0637    1.4248   -1.6153 H   0  0  0  0  0  0  0  0  0  0  0  0
   -2.8482   -0.4122   -1.2556 H   0  0  0  0  0  0  0  0  0  0  0  0
   -0.2536    1.8424    1.6140 H   0  0  0  0  0  0  0  0  0  0  0  0
    1.8132    1.9700    0.3793 H   0  0  0  0  0  0  0  0  0  0  0  0
    1.0116    2.0012   -1.1757 H   0  0  0  0  0  0  0  0  0  0  0  0
   -0.1933   -1.7343    1.5970 H   0  0  0  0  0  0  0  0  0  0  0  0
    2.1196   -1.9368    0.4892 H   0  0  0  0  0  0  0  0  0  0  0  0
    1.9330   -0.5326    1.5438 H   0  0  0  0  0  0  0  0  0  0  0  0
    2.8873    0.1737   -0.6619 H   0  0  0  0  0  0  0  0  0  0  0  0
    2.2349   -1.5781   -2.0345 H   0  0  0  0  0  0  0  0  0  0  0  0
    1.2470   -0.3011   -2.6702 H   0  0  0  0  0  0  0  0  0  0  0  0
    0.5671   -2.9188   -1.2737 H   0  0  0  0  0  0  0  0  0  0  0  0
   -0.4033   -2.1330   -2.4783 H   0  0  0  0  0  0  0  0  0  0  0  0
  1  2  1  0  0  0  0
  1  5  1  0  0  0  0
  1  8  1  0  0  0  0
  1 13  1  0  0  0  0
  2  3  1  0  0  0  0
  2 14  1  0  0  0  0
  2 15  1  0  0  0  0
  3  4  1  0  0  0  0
  3  7  1  0  0  0  0
  3 16  1  0  0  0  0
  4  5  1  0  0  0  0
  5  6  1  0  0  0  0
  5 17  1  0  0  0  0
  6 10  1  0  0  0  0
  6 18  1  0  0  0  0
  6 19  1  0  0  0  0
  7  8  1  0  0  0  0
  7 12  1  0  0  0  0
  8  9  1  0  0  0  0
  8 20  1  0  0  0  0
  9 10  1  0  0  0  0
  9 21  1  0  0  0  0
  9 22  1  0  0  0  0
 10 11  1  0  0  0  0
 10 23  1  0  0  0  0
 11 12  1  0  0  0  0
 11 24  1  0  0  0  0
 11 25  1  0  0  0  0
 12 26  1  0  0  0  0
 12 27  1  0  0  0  0
M  END
$$$$
