astellolide_R
 OpenBabel04252411233D

 35 39  0  0  0  0  0  0  0  0999 V2000
   -3.3883   -0.1515    0.7824 C   0  0  0  0  0  0  0  0  0  0  0  0
   -3.5586   -1.3546    0.0053 O   0  0  0  0  0  0  0  0  0  0  0  0
   -2.2756   -1.7721   -0.5096 C   0  0  0  0  0  0  0  0  0  0  0  0
   -1.3144   -0.7406   -0.0603 C   0  0  0  0  0  0  0  0  0  0  0  0
   -1.9554    0.1780    0.6647 C   0  0  0  0  0  0  0  0  0  0  0  0
   -1.2857    1.3966    1.2118 C   0  0  0  0  0  0  0  0  0  0  0  0
    0.1827    1.4506    0.7214 C   0  0  0  0  0  0  0  0  0  0  0  0
    0.1626    1.7493   -0.6979 O   0  0  0  0  0  0  0  0  0  0  0  0
    0.4368    0.5057   -1.3874 C   0  0  0  0  0  0  0  0  0  0  0  0
    1.8082    0.4859   -1.8058 O   0  0  0  0  0  0  0  0  0  0  0  0
    2.7038    0.8196   -0.7444 C   0  0  0  0  0  0  0  0  0  0  0  0
    2.3697    0.0876    0.5714 C   0  0  0  0  0  0  0  0  0  0  0  0
    0.8488    0.0664    0.8254 C   0  0  0  0  0  0  0  0  0  0  0  0
    0.1661   -0.6358   -0.3682 C   0  0  0  0  0  0  0  0  0  0  0  0
    0.8329   -1.9739   -0.7560 C   0  0  0  0  0  0  0  0  0  0  0  0
    1.8631   -2.4264    0.2724 C   0  0  0  0  0  0  0  0  0  0  0  0
    2.9170   -1.3564    0.5596 C   0  0  0  0  0  0  0  0  0  0  0  0
   -3.6807   -0.3569    1.8160 H   0  0  0  0  0  0  0  0  0  0  0  0
   -4.0313    0.6269    0.3627 H   0  0  0  0  0  0  0  0  0  0  0  0
   -2.3413   -1.8339   -1.5992 H   0  0  0  0  0  0  0  0  0  0  0  0
   -2.0522   -2.7583   -0.0932 H   0  0  0  0  0  0  0  0  0  0  0  0
   -1.3112    1.3631    2.3063 H   0  0  0  0  0  0  0  0  0  0  0  0
   -1.8221    2.2899    0.8731 H   0  0  0  0  0  0  0  0  0  0  0  0
    0.7341    2.2386    1.2435 H   0  0  0  0  0  0  0  0  0  0  0  0
   -0.1954    0.4395   -2.2788 H   0  0  0  0  0  0  0  0  0  0  0  0
    2.6692    1.9056   -0.5934 H   0  0  0  0  0  0  0  0  0  0  0  0
    3.7229    0.5961   -1.0778 H   0  0  0  0  0  0  0  0  0  0  0  0
    2.8749    0.6292    1.3811 H   0  0  0  0  0  0  0  0  0  0  0  0
    0.6418   -0.4043    1.7954 H   0  0  0  0  0  0  0  0  0  0  0  0
    1.3191   -1.9002   -1.7366 H   0  0  0  0  0  0  0  0  0  0  0  0
    0.0991   -2.7775   -0.8753 H   0  0  0  0  0  0  0  0  0  0  0  0
    2.3550   -3.3451   -0.0676 H   0  0  0  0  0  0  0  0  0  0  0  0
    1.3453   -2.6853    1.2050 H   0  0  0  0  0  0  0  0  0  0  0  0
    3.7393   -1.4517   -0.1594 H   0  0  0  0  0  0  0  0  0  0  0  0
    3.3565   -1.5768    1.5410 H   0  0  0  0  0  0  0  0  0  0  0  0
  1  2  1  0  0  0  0
  1  5  1  0  0  0  0
  1 18  1  0  0  0  0
  1 19  1  0  0  0  0
  2  3  1  0  0  0  0
  3  4  1  0  0  0  0
  3 20  1  0  0  0  0
  3 21  1  0  0  0  0
  4  5  2  0  0  0  0
  4 14  1  0  0  0  0
  5  6  1  0  0  0  0
  6  7  1  0  0  0  0
  6 22  1  0  0  0  0
  6 23  1  0  0  0  0
  7  8  1  0  0  0  0
  7 13  1  0  0  0  0
  7 24  1  0  0  0  0
  8  9  1  0  0  0  0
  9 10  1  0  0  0  0
  9 14  1  0  0  0  0
  9 25  1  0  0  0  0
 10 11  1  0  0  0  0
 11 12  1  0  0  0  0
 11 26  1  0  0  0  0
 11 27  1  0  0  0  0
 12 13  1  0  0  0  0
 12 17  1  0  0  0  0
 12 28  1  0  0  0  0
 13 14  1  0  0  0  0
 13 29  1  0  0  0  0
 14 15  1  0  0  0  0
 15 16  1  0  0  0  0
 15 30  1  0  0  0  0
 15 31  1  0  0  0  0
 16 17  1  0  0  0  0
 16 32  1  0  0  0  0
 16 33  1  0  0  0  0
 17 34  1  0  0  0  0
 17 35  1  0  0  0  0
M  END
$$$$
