borneol
 OpenBabel04252411233D

 19 20  0  0  0  0  0  0  0  0999 V2000
   -1.2426   -0.7685   -0.5170 C   0  0  0  0  0  0  0  0  0  0  0  0
   -1.2457    0.7677   -0.5110 C   0  0  0  0  0  0  0  0  0  0  0  0
    0.0080   -1.1139    0.3091 C   0  0  0  0  0  0  0  0  0  0  0  0
    0.0056   -0.0046    1.3603 C   0  0  0  0  0  0  0  0  0  0  0  0
    0.0044    1.1116    0.3164 C   0  0  0  0  0  0  0  0  0  0  0  0
    1.2559    0.7716   -0.5106 C   0  0  0  0  0  0  0  0  0  0  0  0
    1.2590   -0.7646   -0.5147 C   0  0  0  0  0  0  0  0  0  0  0  0
   -1.2025   -1.1761   -1.5321 H   0  0  0  0  0  0  0  0  0  0  0  0
   -2.1483   -1.1485   -0.0311 H   0  0  0  0  0  0  0  0  0  0  0  0
   -2.1523    1.1402   -0.0209 H   0  0  0  0  0  0  0  0  0  0  0  0
   -1.2086    1.1835   -1.5229 H   0  0  0  0  0  0  0  0  0  0  0  0
    0.0093   -2.1342    0.6974 H   0  0  0  0  0  0  0  0  0  0  0  0
    0.9005   -0.0052    1.9914 H   0  0  0  0  0  0  0  0  0  0  0  0
   -0.8899   -0.0081    1.9904 H   0  0  0  0  0  0  0  0  0  0  0  0
    0.0027    2.1293    0.7114 H   0  0  0  0  0  0  0  0  0  0  0  0
    2.1611    1.1484   -0.0212 H   0  0  0  0  0  0  0  0  0  0  0  0
    1.2169    1.1858   -1.5230 H   0  0  0  0  0  0  0  0  0  0  0  0
    2.1650   -1.1404   -0.0260 H   0  0  0  0  0  0  0  0  0  0  0  0
    1.2230   -1.1738   -1.5293 H   0  0  0  0  0  0  0  0  0  0  0  0
  1  2  1  0  0  0  0
  1  3  1  0  0  0  0
  1  8  1  0  0  0  0
  1  9  1  0  0  0  0
  2  5  1  0  0  0  0
  2 10  1  0  0  0  0
  2 11  1  0  0  0  0
  3  4  1  0  0  0  0
  3  7  1  0  0  0  0
  3 12  1  0  0  0  0
  4  5  1  0  0  0  0
  4 13  1  0  0  0  0
  4 14  1  0  0  0  0
  5  6  1  0  0  0  0
  5 15  1  0  0  0  0
  6  7  1  0  0  0  0
  6 16  1  0  0  0  0
  6 17  1  0  0  0  0
  7 18  1  0  0  0  0
  7 19  1  0  0  0  0
M  END
$$$$
