chartelline_C
 OpenBabel04252411243D

 38 42  0  0  0  0  0  0  0  0999 V2000
   13.7188    3.0417    3.0445 C   0  0  0  0  0  0  0  0  0  0  0  0
   13.7233    1.7574    3.8713 C   0  0  0  0  0  0  0  0  0  0  0  0
   12.6177    3.5444    3.9694 C   0  0  0  0  0  0  0  0  0  0  0  0
   11.2925    4.2605    3.3693 C   0  0  0  0  0  0  0  0  0  0  0  0
   10.4227    3.8293    2.2283 C   0  0  0  0  0  0  0  0  0  0  0  0
   10.0610    2.7119    1.5763 C   0  0  0  0  0  0  0  0  0  0  0  0
   10.4411    1.2699    1.6993 C   0  0  0  0  0  0  0  0  0  0  0  0
   11.0065    5.4101    3.9423 N   0  0  0  0  0  0  0  0  0  0  0  0
   11.9502    5.6444    4.9580 C   0  0  0  0  0  0  0  0  0  0  0  0
   12.9225    4.6373    5.0437 C   0  0  0  0  0  0  0  0  0  0  0  0
   13.9133    4.7421    6.0203 C   0  0  0  0  0  0  0  0  0  0  0  0
   13.9145    5.8373    6.8900 C   0  0  0  0  0  0  0  0  0  0  0  0
   12.9297    6.8279    6.7880 C   0  0  0  0  0  0  0  0  0  0  0  0
   11.9376    6.7341    5.8130 C   0  0  0  0  0  0  0  0  0  0  0  0
   12.5794    2.2377    4.6053 N   0  0  0  0  0  0  0  0  0  0  0  0
   11.3953    1.5562    4.7697 C   0  0  0  0  0  0  0  0  0  0  0  0
   11.1349    0.2599    4.5474 C   0  0  0  0  0  0  0  0  0  0  0  0
    9.9130   -0.0407    3.8962 C   0  0  0  0  0  0  0  0  0  0  0  0
    9.6140    0.4504    2.6394 C   0  0  0  0  0  0  0  0  0  0  0  0
    8.3357    0.0062    2.4165 N   0  0  0  0  0  0  0  0  0  0  0  0
    7.9559   -0.7222    3.5159 C   0  0  0  0  0  0  0  0  0  0  0  0
    8.9059   -0.7795    4.4248 N   0  0  0  0  0  0  0  0  0  0  0  0
   13.4176    2.9048    2.0008 H   0  0  0  0  0  0  0  0  0  0  0  0
   14.6571    3.6047    3.0661 H   0  0  0  0  0  0  0  0  0  0  0  0
   14.5914    1.6297    4.5251 H   0  0  0  0  0  0  0  0  0  0  0  0
   13.5602    0.8465    3.2897 H   0  0  0  0  0  0  0  0  0  0  0  0
    9.8905    4.7213    1.8797 H   0  0  0  0  0  0  0  0  0  0  0  0
    9.3294    2.8690    0.7804 H   0  0  0  0  0  0  0  0  0  0  0  0
   11.5036    1.1924    1.9478 H   0  0  0  0  0  0  0  0  0  0  0  0
   10.3675    0.8170    0.7008 H   0  0  0  0  0  0  0  0  0  0  0  0
   14.6650    3.9647    6.1195 H   0  0  0  0  0  0  0  0  0  0  0  0
   14.6777    5.9138    7.6608 H   0  0  0  0  0  0  0  0  0  0  0  0
   12.9321    7.6685    7.4771 H   0  0  0  0  0  0  0  0  0  0  0  0
   11.1618    7.4868    5.7267 H   0  0  0  0  0  0  0  0  0  0  0  0
   10.5508    2.2427    4.8487 H   0  0  0  0  0  0  0  0  0  0  0  0
   11.9309   -0.4688    4.4512 H   0  0  0  0  0  0  0  0  0  0  0  0
    7.7644    0.1869    1.6030 H   0  0  0  0  0  0  0  0  0  0  0  0
    6.9783   -1.1786    3.5957 H   0  0  0  0  0  0  0  0  0  0  0  0
  1  2  1  0  0  0  0
  1  3  1  0  0  0  0
  1 23  1  0  0  0  0
  1 24  1  0  0  0  0
  2 15  1  0  0  0  0
  2 25  1  0  0  0  0
  2 26  1  0  0  0  0
  3  4  1  0  0  0  0
  3 10  1  0  0  0  0
  3 15  1  0  0  0  0
  4  5  1  0  0  0  0
  4  8  2  0  0  0  0
  5  6  2  0  0  0  0
  5 27  1  0  0  0  0
  6  7  1  0  0  0  0
  6 28  1  0  0  0  0
  7 19  1  0  0  0  0
  7 29  1  0  0  0  0
  7 30  1  0  0  0  0
  8  9  1  0  0  0  0
  9 10  1  0  0  0  0
  9 14  2  0  0  0  0
 10 11  2  0  0  0  0
 11 12  1  0  0  0  0
 11 31  1  0  0  0  0
 12 13  2  0  0  0  0
 12 32  1  0  0  0  0
 13 14  1  0  0  0  0
 13 33  1  0  0  0  0
 14 34  1  0  0  0  0
 15 16  1  0  0  0  0
 16 17  2  0  0  0  0
 16 35  1  0  0  0  0
 17 18  1  0  0  0  0
 17 36  1  0  0  0  0
 18 19  2  0  0  0  0
 18 22  1  0  0  0  0
 19 20  1  0  0  0  0
 20 21  1  0  0  0  0
 20 37  1  0  0  0  0
 21 22  2  0  0  0  0
 21 38  1  0  0  0  0
M  END
$$$$
