cortistatin_A
 OpenBabel04252411243D

 43 47  0  0  0  0  0  0  0  0999 V2000
    1.4848    0.1415    0.5523 C   0  0  0  0  0  0  0  0  0  0  0  0
    1.6072   -0.7738   -0.6660 C   0  0  0  0  0  0  0  0  0  0  0  0
    2.9514   -1.4985   -0.4822 C   0  0  0  0  0  0  0  0  0  0  0  0
    3.5306   -2.1524   -1.7508 C   0  0  0  0  0  0  0  0  0  0  0  0
    2.4502   -2.9910   -2.4889 C   0  0  0  0  0  0  0  0  0  0  0  0
    3.1420   -4.3129   -2.8182 C   0  0  0  0  0  0  0  0  0  0  0  0
    4.5415   -3.1470   -1.4321 O   0  0  0  0  0  0  0  0  0  0  0  0
    4.6109   -3.9607   -2.6385 C   0  0  0  0  0  0  0  0  0  0  0  0
    5.5536   -5.1343   -2.3990 C   0  0  0  0  0  0  0  0  0  0  0  0
    5.8001   -6.0049   -3.6345 C   0  0  0  0  0  0  0  0  0  0  0  0
    5.4717   -5.3271   -4.9664 C   0  0  0  0  0  0  0  0  0  0  0  0
    5.7660   -3.8285   -4.9603 C   0  0  0  0  0  0  0  0  0  0  0  0
    5.0952   -3.1139   -3.8183 C   0  0  0  0  0  0  0  0  0  0  0  0
    4.9316   -1.7772   -3.8019 C   0  0  0  0  0  0  0  0  0  0  0  0
    4.3103   -1.1770   -2.6325 C   0  0  0  0  0  0  0  0  0  0  0  0
    4.6033    0.0840   -2.2788 C   0  0  0  0  0  0  0  0  0  0  0  0
    4.2598    0.6643   -0.9419 C   0  0  0  0  0  0  0  0  0  0  0  0
    3.8235   -0.3797    0.1054 C   0  0  0  0  0  0  0  0  0  0  0  0
    2.8923    0.2577    1.1431 C   0  0  0  0  0  0  0  0  0  0  0  0
    0.7978   -0.2846    1.2917 H   0  0  0  0  0  0  0  0  0  0  0  0
    1.0877    1.1199    0.2614 H   0  0  0  0  0  0  0  0  0  0  0  0
    1.6012   -0.1729   -1.5839 H   0  0  0  0  0  0  0  0  0  0  0  0
    0.7584   -1.4615   -0.7236 H   0  0  0  0  0  0  0  0  0  0  0  0
    2.8251   -2.2757    0.2859 H   0  0  0  0  0  0  0  0  0  0  0  0
    2.0789   -2.4828   -3.3860 H   0  0  0  0  0  0  0  0  0  0  0  0
    1.5803   -3.2119   -1.8613 H   0  0  0  0  0  0  0  0  0  0  0  0
    2.8654   -4.6852   -3.8074 H   0  0  0  0  0  0  0  0  0  0  0  0
    2.8385   -5.0656   -2.0792 H   0  0  0  0  0  0  0  0  0  0  0  0
    5.2011   -5.7551   -1.5659 H   0  0  0  0  0  0  0  0  0  0  0  0
    6.5201   -4.7386   -2.0539 H   0  0  0  0  0  0  0  0  0  0  0  0
    5.2199   -6.9318   -3.5563 H   0  0  0  0  0  0  0  0  0  0  0  0
    6.8546   -6.3094   -3.6370 H   0  0  0  0  0  0  0  0  0  0  0  0
    6.0350   -5.8131   -5.7719 H   0  0  0  0  0  0  0  0  0  0  0  0
    4.4138   -5.4918   -5.2041 H   0  0  0  0  0  0  0  0  0  0  0  0
    5.4377   -3.4002   -5.9155 H   0  0  0  0  0  0  0  0  0  0  0  0
    6.8495   -3.6781   -4.8867 H   0  0  0  0  0  0  0  0  0  0  0  0
    5.3133   -1.1431   -4.5952 H   0  0  0  0  0  0  0  0  0  0  0  0
    5.2138    0.7093   -2.9262 H   0  0  0  0  0  0  0  0  0  0  0  0
    3.4963    1.4368   -1.0894 H   0  0  0  0  0  0  0  0  0  0  0  0
    5.1439    1.1828   -0.5483 H   0  0  0  0  0  0  0  0  0  0  0  0
    4.7127   -0.8004    0.5907 H   0  0  0  0  0  0  0  0  0  0  0  0
    3.1540    1.2952    1.3748 H   0  0  0  0  0  0  0  0  0  0  0  0
    2.9361   -0.3082    2.0815 H   0  0  0  0  0  0  0  0  0  0  0  0
  1  2  1  0  0  0  0
  1 19  1  0  0  0  0
  1 20  1  0  0  0  0
  1 21  1  0  0  0  0
  2  3  1  0  0  0  0
  2 22  1  0  0  0  0
  2 23  1  0  0  0  0
  3  4  1  0  0  0  0
  3 18  1  0  0  0  0
  3 24  1  0  0  0  0
  4  5  1  0  0  0  0
  4  7  1  0  0  0  0
  4 15  1  0  0  0  0
  5  6  1  0  0  0  0
  5 25  1  0  0  0  0
  5 26  1  0  0  0  0
  6  8  1  0  0  0  0
  6 27  1  0  0  0  0
  6 28  1  0  0  0  0
  7  8  1  0  0  0  0
  8  9  1  0  0  0  0
  8 13  1  0  0  0  0
  9 10  1  0  0  0  0
  9 29  1  0  0  0  0
  9 30  1  0  0  0  0
 10 11  1  0  0  0  0
 10 31  1  0  0  0  0
 10 32  1  0  0  0  0
 11 12  1  0  0  0  0
 11 33  1  0  0  0  0
 11 34  1  0  0  0  0
 12 13  1  0  0  0  0
 12 35  1  0  0  0  0
 12 36  1  0  0  0  0
 13 14  2  0  0  0  0
 14 15  1  0  0  0  0
 14 37  1  0  0  0  0
 15 16  2  0  0  0  0
 16 17  1  0  0  0  0
 16 38  1  0  0  0  0
 17 18  1  0  0  0  0
 17 39  1  0  0  0  0
 17 40  1  0  0  0  0
 18 19  1  0  0  0  0
 18 41  1  0  0  0  0
 19 42  1  0  0  0  0
 19 43  1  0  0  0  0
M  END
$$$$
