cycloaplysinopsin_A
 OpenBabel04252411243D

 34 36  0  0  0  0  0  0  0  0999 V2000
    1.2312    1.0812    0.7748 C   0  0  0  0  0  0  0  0  0  0  0  0
    2.6951    1.1702    0.8012 N   0  0  0  0  0  0  0  0  0  0  0  0
    3.0965   -0.1712    0.4296 C   0  0  0  0  0  0  0  0  0  0  0  0
    2.1876   -0.5562   -0.6320 N   0  0  0  0  0  0  0  0  0  0  0  0
    0.9406    0.2288   -0.4717 C   0  0  0  0  0  0  0  0  0  0  0  0
    0.7825    1.0812   -1.7484 C   0  0  0  0  0  0  0  0  0  0  0  0
   -0.5459    1.8352   -1.7957 C   0  0  0  0  0  0  0  0  0  0  0  0
   -1.7381    0.8946   -1.6225 C   0  0  0  0  0  0  0  0  0  0  0  0
   -0.2789   -0.7008   -0.3052 C   0  0  0  0  0  0  0  0  0  0  0  0
   -1.6398    0.0261   -0.3482 C   0  0  0  0  0  0  0  0  0  0  0  0
   -2.7483   -0.9565   -0.3999 N   0  0  0  0  0  0  0  0  0  0  0  0
   -3.7263   -0.5757    0.6058 C   0  0  0  0  0  0  0  0  0  0  0  0
   -3.3995    0.7786    0.9926 N   0  0  0  0  0  0  0  0  0  0  0  0
   -1.9436    0.8164    0.9334 C   0  0  0  0  0  0  0  0  0  0  0  0
    0.7961    2.0832    0.7392 H   0  0  0  0  0  0  0  0  0  0  0  0
    0.8951    0.5933    1.6975 H   0  0  0  0  0  0  0  0  0  0  0  0
    2.9890    1.7723    0.0324 H   0  0  0  0  0  0  0  0  0  0  0  0
    3.0051   -0.8465    1.2888 H   0  0  0  0  0  0  0  0  0  0  0  0
    4.1358   -0.1983    0.0888 H   0  0  0  0  0  0  0  0  0  0  0  0
    2.0115   -1.5564   -0.5712 H   0  0  0  0  0  0  0  0  0  0  0  0
    0.8365    0.4303   -2.6326 H   0  0  0  0  0  0  0  0  0  0  0  0
    1.6047    1.8010   -1.8487 H   0  0  0  0  0  0  0  0  0  0  0  0
   -0.6314    2.3497   -2.7603 H   0  0  0  0  0  0  0  0  0  0  0  0
   -0.5661    2.6171   -1.0294 H   0  0  0  0  0  0  0  0  0  0  0  0
   -1.7867    0.2428   -2.5063 H   0  0  0  0  0  0  0  0  0  0  0  0
   -2.6620    1.4869   -1.6294 H   0  0  0  0  0  0  0  0  0  0  0  0
   -0.1884   -1.2823    0.6228 H   0  0  0  0  0  0  0  0  0  0  0  0
   -0.2605   -1.4403   -1.1204 H   0  0  0  0  0  0  0  0  0  0  0  0
   -2.4226   -1.8993   -0.2054 H   0  0  0  0  0  0  0  0  0  0  0  0
   -3.6490   -1.2454    1.4711 H   0  0  0  0  0  0  0  0  0  0  0  0
   -4.7440   -0.6440    0.2119 H   0  0  0  0  0  0  0  0  0  0  0  0
   -3.7375    0.9722    1.9315 H   0  0  0  0  0  0  0  0  0  0  0  0
   -1.5282    0.3287    1.8237 H   0  0  0  0  0  0  0  0  0  0  0  0
   -1.5956    1.8517    0.9059 H   0  0  0  0  0  0  0  0  0  0  0  0
  1  2  1  0  0  0  0
  1  5  1  0  0  0  0
  1 15  1  0  0  0  0
  1 16  1  0  0  0  0
  2  3  1  0  0  0  0
  2 17  1  0  0  0  0
  3  4  1  0  0  0  0
  3 18  1  0  0  0  0
  3 19  1  0  0  0  0
  4  5  1  0  0  0  0
  4 20  1  0  0  0  0
  5  6  1  0  0  0  0
  5  9  1  0  0  0  0
  6  7  1  0  0  0  0
  6 21  1  0  0  0  0
  6 22  1  0  0  0  0
  7  8  1  0  0  0  0
  7 23  1  0  0  0  0
  7 24  1  0  0  0  0
  8 10  1  0  0  0  0
  8 25  1  0  0  0  0
  8 26  1  0  0  0  0
  9 10  1  0  0  0  0
  9 27  1  0  0  0  0
  9 28  1  0  0  0  0
 10 11  1  0  0  0  0
 10 14  1  0  0  0  0
 11 12  1  0  0  0  0
 11 29  1  0  0  0  0
 12 13  1  0  0  0  0
 12 30  1  0  0  0  0
 12 31  1  0  0  0  0
 13 14  1  0  0  0  0
 13 32  1  0  0  0  0
 14 33  1  0  0  0  0
 14 34  1  0  0  0  0
M  END
$$$$
