epicoccane_C
 OpenBabel04252411233D

 20 22  0  0  0  0  0  0  0  0999 V2000
   -0.0987   -0.7837   -0.9281 C   0  0  0  0  0  0  0  0  0  0  0  0
    1.2292   -1.2935   -0.3890 C   0  0  0  0  0  0  0  0  0  0  0  0
   -1.2866   -1.1286   -0.0429 C   0  0  0  0  0  0  0  0  0  0  0  0
   -1.3308    0.0336    0.9339 C   0  0  0  0  0  0  0  0  0  0  0  0
   -0.3227   -0.0740    2.0531 C   0  0  0  0  0  0  0  0  0  0  0  0
    1.0095   -0.1608    1.8694 C   0  0  0  0  0  0  0  0  0  0  0  0
    1.6837   -0.1634    0.5183 C   0  0  0  0  0  0  0  0  0  0  0  0
    1.3006    1.0132   -0.2054 O   0  0  0  0  0  0  0  0  0  0  0  0
    0.0198    0.7375   -0.7905 C   0  0  0  0  0  0  0  0  0  0  0  0
   -1.0095    1.1644    0.1135 O   0  0  0  0  0  0  0  0  0  0  0  0
   -0.2621   -1.1184   -1.9570 H   0  0  0  0  0  0  0  0  0  0  0  0
    1.9334   -1.3847   -1.2257 H   0  0  0  0  0  0  0  0  0  0  0  0
    1.1675   -2.2669    0.1072 H   0  0  0  0  0  0  0  0  0  0  0  0
   -1.2194   -2.1109    0.4347 H   0  0  0  0  0  0  0  0  0  0  0  0
   -2.1956   -1.1129   -0.6574 H   0  0  0  0  0  0  0  0  0  0  0  0
   -2.3324    0.1728    1.3528 H   0  0  0  0  0  0  0  0  0  0  0  0
   -0.7192   -0.0606    3.0647 H   0  0  0  0  0  0  0  0  0  0  0  0
    1.6624   -0.2156    2.7363 H   0  0  0  0  0  0  0  0  0  0  0  0
    2.7704   -0.1610    0.6490 H   0  0  0  0  0  0  0  0  0  0  0  0
   -0.0751    1.2800   -1.7351 H   0  0  0  0  0  0  0  0  0  0  0  0
  1  2  1  0  0  0  0
  1  3  1  0  0  0  0
  1  9  1  0  0  0  0
  1 11  1  0  0  0  0
  2  7  1  0  0  0  0
  2 12  1  0  0  0  0
  2 13  1  0  0  0  0
  3  4  1  0  0  0  0
  3 14  1  0  0  0  0
  3 15  1  0  0  0  0
  4  5  1  0  0  0  0
  4 10  1  0  0  0  0
  4 16  1  0  0  0  0
  5  6  2  0  0  0  0
  5 17  1  0  0  0  0
  6  7  1  0  0  0  0
  6 18  1  0  0  0  0
  7  8  1  0  0  0  0
  7 19  1  0  0  0  0
  8  9  1  0  0  0  0
  9 10  1  0  0  0  0
  9 20  1  0  0  0  0
M  END
$$$$
