galanthamine
 OpenBabel04252411243D

 34 37  0  0  0  0  0  0  0  0999 V2000
    1.1990    0.0767   -0.8243 C   0  0  0  0  0  0  0  0  0  0  0  0
    0.5969    1.2685   -1.5500 C   0  0  0  0  0  0  0  0  0  0  0  0
    0.5153    2.4252   -0.6078 C   0  0  0  0  0  0  0  0  0  0  0  0
    1.4263    2.6104    0.3612 C   0  0  0  0  0  0  0  0  0  0  0  0
    2.7020    1.7891    0.4701 C   0  0  0  0  0  0  0  0  0  0  0  0
    3.8871    2.6055   -0.1016 C   0  0  0  0  0  0  0  0  0  0  0  0
    4.1021    3.9967    0.5219 C   0  0  0  0  0  0  0  0  0  0  0  0
    4.5602    4.0188    1.9130 N   0  0  0  0  0  0  0  0  0  0  0  0
    3.5592    3.5681    2.8834 C   0  0  0  0  0  0  0  0  0  0  0  0
    2.5856    0.3941   -0.2470 C   0  0  0  0  0  0  0  0  0  0  0  0
    2.8832   -0.6812    0.6842 O   0  0  0  0  0  0  0  0  0  0  0  0
    3.1264   -0.0650    1.8785 C   0  0  0  0  0  0  0  0  0  0  0  0
    3.0516    1.3188    1.8460 C   0  0  0  0  0  0  0  0  0  0  0  0
    3.4502    2.0696    2.9506 C   0  0  0  0  0  0  0  0  0  0  0  0
    3.8268    1.3730    4.1139 C   0  0  0  0  0  0  0  0  0  0  0  0
    3.8441   -0.0296    4.1468 C   0  0  0  0  0  0  0  0  0  0  0  0
    3.5041   -0.7603    3.0113 C   0  0  0  0  0  0  0  0  0  0  0  0
    1.2653   -0.7882   -1.4949 H   0  0  0  0  0  0  0  0  0  0  0  0
    0.5256   -0.2386   -0.0137 H   0  0  0  0  0  0  0  0  0  0  0  0
   -0.4107    1.0094   -1.8930 H   0  0  0  0  0  0  0  0  0  0  0  0
    1.1869    1.5394   -2.4329 H   0  0  0  0  0  0  0  0  0  0  0  0
   -0.3299    3.1018   -0.6998 H   0  0  0  0  0  0  0  0  0  0  0  0
    1.2791    3.4399    1.0446 H   0  0  0  0  0  0  0  0  0  0  0  0
    3.7245    2.7520   -1.1789 H   0  0  0  0  0  0  0  0  0  0  0  0
    4.8222    2.0337   -0.0169 H   0  0  0  0  0  0  0  0  0  0  0  0
    3.2134    4.6277    0.4049 H   0  0  0  0  0  0  0  0  0  0  0  0
    4.8820    4.4897   -0.0718 H   0  0  0  0  0  0  0  0  0  0  0  0
    4.8089    4.9796    2.1463 H   0  0  0  0  0  0  0  0  0  0  0  0
    2.5801    4.0277    2.7125 H   0  0  0  0  0  0  0  0  0  0  0  0
    3.8754    3.9376    3.8671 H   0  0  0  0  0  0  0  0  0  0  0  0
    3.3209    0.3207   -1.0592 H   0  0  0  0  0  0  0  0  0  0  0  0
    4.1489    1.9193    4.9982 H   0  0  0  0  0  0  0  0  0  0  0  0
    4.1615   -0.5460    5.0490 H   0  0  0  0  0  0  0  0  0  0  0  0
    3.5629   -1.8430    3.0032 H   0  0  0  0  0  0  0  0  0  0  0  0
  1  2  1  0  0  0  0
  1 10  1  0  0  0  0
  1 18  1  0  0  0  0
  1 19  1  0  0  0  0
  2  3  1  0  0  0  0
  2 20  1  0  0  0  0
  2 21  1  0  0  0  0
  3  4  2  0  0  0  0
  3 22  1  0  0  0  0
  4  5  1  0  0  0  0
  4 23  1  0  0  0  0
  5  6  1  0  0  0  0
  5 10  1  0  0  0  0
  5 13  1  0  0  0  0
  6  7  1  0  0  0  0
  6 24  1  0  0  0  0
  6 25  1  0  0  0  0
  7  8  1  0  0  0  0
  7 26  1  0  0  0  0
  7 27  1  0  0  0  0
  8  9  1  0  0  0  0
  8 28  1  0  0  0  0
  9 14  1  0  0  0  0
  9 29  1  0  0  0  0
  9 30  1  0  0  0  0
 10 11  1  0  0  0  0
 10 31  1  0  0  0  0
 11 12  1  0  0  0  0
 12 13  1  0  0  0  0
 12 17  2  0  0  0  0
 13 14  2  0  0  0  0
 14 15  1  0  0  0  0
 15 16  2  0  0  0  0
 15 32  1  0  0  0  0
 16 17  1  0  0  0  0
 16 33  1  0  0  0  0
 17 34  1  0  0  0  0
M  END
$$$$
