geopyxin_A
 OpenBabel04252411233D

 32 34  0  0  0  0  0  0  0  0999 V2000
   -2.6400   -0.0419    0.3926 C   0  0  0  0  0  0  0  0  0  0  0  0
   -1.6137    1.0582    0.6529 C   0  0  0  0  0  0  0  0  0  0  0  0
   -2.3826   -0.3858   -1.0799 C   0  0  0  0  0  0  0  0  0  0  0  0
   -0.8960   -0.0750   -1.3194 C   0  0  0  0  0  0  0  0  0  0  0  0
   -0.3509    0.4350    0.0384 C   0  0  0  0  0  0  0  0  0  0  0  0
    0.7700    1.4699   -0.1279 C   0  0  0  0  0  0  0  0  0  0  0  0
    2.0720    0.8395   -0.6161 C   0  0  0  0  0  0  0  0  0  0  0  0
    2.5302   -0.2813    0.3107 C   0  0  0  0  0  0  0  0  0  0  0  0
    1.4503   -1.3433    0.4969 C   0  0  0  0  0  0  0  0  0  0  0  0
    0.1189   -0.7311    0.9605 C   0  0  0  0  0  0  0  0  0  0  0  0
   -0.9549   -1.8235    1.1158 C   0  0  0  0  0  0  0  0  0  0  0  0
   -2.3565   -1.2384    1.3156 C   0  0  0  0  0  0  0  0  0  0  0  0
   -3.6639    0.3118    0.5506 H   0  0  0  0  0  0  0  0  0  0  0  0
   -1.5030    1.2923    1.7172 H   0  0  0  0  0  0  0  0  0  0  0  0
   -1.8972    1.9813    0.1315 H   0  0  0  0  0  0  0  0  0  0  0  0
   -2.9935    0.2551   -1.7271 H   0  0  0  0  0  0  0  0  0  0  0  0
   -2.6315   -1.4239   -1.3228 H   0  0  0  0  0  0  0  0  0  0  0  0
   -0.8174    0.6996   -2.0923 H   0  0  0  0  0  0  0  0  0  0  0  0
   -0.3620   -0.9524   -1.6960 H   0  0  0  0  0  0  0  0  0  0  0  0
    0.9553    1.9654    0.8343 H   0  0  0  0  0  0  0  0  0  0  0  0
    0.4655    2.2589   -0.8264 H   0  0  0  0  0  0  0  0  0  0  0  0
    2.8514    1.6081   -0.6722 H   0  0  0  0  0  0  0  0  0  0  0  0
    1.9394    0.4477   -1.6316 H   0  0  0  0  0  0  0  0  0  0  0  0
    2.7972    0.1405    1.2877 H   0  0  0  0  0  0  0  0  0  0  0  0
    3.4369   -0.7458   -0.0930 H   0  0  0  0  0  0  0  0  0  0  0  0
    1.7945   -2.0796    1.2333 H   0  0  0  0  0  0  0  0  0  0  0  0
    1.3147   -1.8874   -0.4453 H   0  0  0  0  0  0  0  0  0  0  0  0
    0.2927   -0.3078    1.9613 H   0  0  0  0  0  0  0  0  0  0  0  0
   -0.7064   -2.4767    1.9611 H   0  0  0  0  0  0  0  0  0  0  0  0
   -0.9620   -2.4700    0.2291 H   0  0  0  0  0  0  0  0  0  0  0  0
   -2.4647   -0.9170    2.3592 H   0  0  0  0  0  0  0  0  0  0  0  0
   -3.1024   -2.0246    1.1499 H   0  0  0  0  0  0  0  0  0  0  0  0
  1  2  1  0  0  0  0
  1  3  1  0  0  0  0
  1 12  1  0  0  0  0
  1 13  1  0  0  0  0
  2  5  1  0  0  0  0
  2 14  1  0  0  0  0
  2 15  1  0  0  0  0
  3  4  1  0  0  0  0
  3 16  1  0  0  0  0
  3 17  1  0  0  0  0
  4  5  1  0  0  0  0
  4 18  1  0  0  0  0
  4 19  1  0  0  0  0
  5  6  1  0  0  0  0
  5 10  1  0  0  0  0
  6  7  1  0  0  0  0
  6 20  1  0  0  0  0
  6 21  1  0  0  0  0
  7  8  1  0  0  0  0
  7 22  1  0  0  0  0
  7 23  1  0  0  0  0
  8  9  1  0  0  0  0
  8 24  1  0  0  0  0
  8 25  1  0  0  0  0
  9 10  1  0  0  0  0
  9 26  1  0  0  0  0
  9 27  1  0  0  0  0
 10 11  1  0  0  0  0
 10 28  1  0  0  0  0
 11 12  1  0  0  0  0
 11 29  1  0  0  0  0
 11 30  1  0  0  0  0
 12 31  1  0  0  0  0
 12 32  1  0  0  0  0
M  END
$$$$
