granatripodin_B
 OpenBabel04252411233D

 23 25  0  0  0  0  0  0  0  0999 V2000
   -0.9448    1.0657   -0.4642 C   0  0  0  0  0  0  0  0  0  0  0  0
   -1.6896    0.1113    0.4237 C   0  0  0  0  0  0  0  0  0  0  0  0
   -1.1148   -1.3091    0.4620 C   0  0  0  0  0  0  0  0  0  0  0  0
    0.3549   -1.4317    0.0302 C   0  0  0  0  0  0  0  0  0  0  0  0
    1.3243   -0.7165    0.9841 C   0  0  0  0  0  0  0  0  0  0  0  0
    1.1555    0.8043    1.0570 C   0  0  0  0  0  0  0  0  0  0  0  0
    0.4963    1.4158   -0.1452 C   0  0  0  0  0  0  0  0  0  0  0  0
    0.1667    0.5940   -1.3661 C   0  0  0  0  0  0  0  0  0  0  0  0
    0.5179   -0.8556   -1.3804 C   0  0  0  0  0  0  0  0  0  0  0  0
   -1.5790    1.8759   -0.8072 H   0  0  0  0  0  0  0  0  0  0  0  0
   -2.7350    0.0578    0.0959 H   0  0  0  0  0  0  0  0  0  0  0  0
   -1.7187    0.5232    1.4397 H   0  0  0  0  0  0  0  0  0  0  0  0
   -1.7175   -1.9376   -0.2076 H   0  0  0  0  0  0  0  0  0  0  0  0
   -1.2522   -1.7300    1.4655 H   0  0  0  0  0  0  0  0  0  0  0  0
    0.6187   -2.4964    0.0079 H   0  0  0  0  0  0  0  0  0  0  0  0
    2.3485   -0.9304    0.6496 H   0  0  0  0  0  0  0  0  0  0  0  0
    1.2470   -1.1399    1.9929 H   0  0  0  0  0  0  0  0  0  0  0  0
    2.1427    1.2611    1.1981 H   0  0  0  0  0  0  0  0  0  0  0  0
    0.5767    1.0674    1.9506 H   0  0  0  0  0  0  0  0  0  0  0  0
    0.7887    2.4509   -0.2834 H   0  0  0  0  0  0  0  0  0  0  0  0
    0.2690    1.0578   -2.3395 H   0  0  0  0  0  0  0  0  0  0  0  0
    1.5495   -0.9818   -1.7288 H   0  0  0  0  0  0  0  0  0  0  0  0
   -0.1304   -1.3854   -2.0879 H   0  0  0  0  0  0  0  0  0  0  0  0
  1  2  1  0  0  0  0
  1  7  1  0  0  0  0
  1  8  1  0  0  0  0
  1 10  1  0  0  0  0
  2  3  1  0  0  0  0
  2 11  1  0  0  0  0
  2 12  1  0  0  0  0
  3  4  1  0  0  0  0
  3 13  1  0  0  0  0
  3 14  1  0  0  0  0
  4  5  1  0  0  0  0
  4  9  1  0  0  0  0
  4 15  1  0  0  0  0
  5  6  1  0  0  0  0
  5 16  1  0  0  0  0
  5 17  1  0  0  0  0
  6  7  1  0  0  0  0
  6 18  1  0  0  0  0
  6 19  1  0  0  0  0
  7  8  1  0  0  0  0
  7 20  1  0  0  0  0
  8  9  1  0  0  0  0
  8 21  1  0  0  0  0
  9 22  1  0  0  0  0
  9 23  1  0  0  0  0
M  END
$$$$
