hippolachnin_A
 OpenBabel04252411233D

 21 23  0  0  0  0  0  0  0  0999 V2000
    2.2814    0.9678   -0.1049 C   0  0  0  0  0  0  0  0  0  0  0  0
    3.3009    1.0510   -1.3202 C   0  0  0  0  0  0  0  0  0  0  0  0
    4.8350    1.0101   -1.2059 C   0  0  0  0  0  0  0  0  0  0  0  0
    5.3190   -0.4561   -1.3908 C   0  0  0  0  0  0  0  0  0  0  0  0
    2.8435   -0.4718    0.1114 C   0  0  0  0  0  0  0  0  0  0  0  0
    2.9571   -0.4157   -1.4576 C   0  0  0  0  0  0  0  0  0  0  0  0
    4.1003   -1.3372   -1.6864 C   0  0  0  0  0  0  0  0  0  0  0  0
    3.8797   -2.3875   -0.7290 O   0  0  0  0  0  0  0  0  0  0  0  0
    2.7349   -1.9762    0.0729 C   0  0  0  0  0  0  0  0  0  0  0  0
    1.2207    1.0179   -0.3782 H   0  0  0  0  0  0  0  0  0  0  0  0
    2.4768    1.6787    0.7022 H   0  0  0  0  0  0  0  0  0  0  0  0
    2.9608    1.6906   -2.1405 H   0  0  0  0  0  0  0  0  0  0  0  0
    5.1640    1.4004   -0.2361 H   0  0  0  0  0  0  0  0  0  0  0  0
    5.2874    1.6451   -1.9763 H   0  0  0  0  0  0  0  0  0  0  0  0
    5.8681   -0.7987   -0.5067 H   0  0  0  0  0  0  0  0  0  0  0  0
    6.0210   -0.4974   -2.2318 H   0  0  0  0  0  0  0  0  0  0  0  0
    3.7455   -0.3252    0.7343 H   0  0  0  0  0  0  0  0  0  0  0  0
    2.0350   -0.6342   -2.0148 H   0  0  0  0  0  0  0  0  0  0  0  0
    4.1351   -1.7591   -2.6957 H   0  0  0  0  0  0  0  0  0  0  0  0
    2.8317   -2.4277    1.0651 H   0  0  0  0  0  0  0  0  0  0  0  0
    1.8129   -2.3477   -0.3905 H   0  0  0  0  0  0  0  0  0  0  0  0
  1  2  1  0  0  0  0
  1  5  1  0  0  0  0
  1 10  1  0  0  0  0
  1 11  1  0  0  0  0
  2  3  1  0  0  0  0
  2  6  1  0  0  0  0
  2 12  1  0  0  0  0
  3  4  1  0  0  0  0
  3 13  1  0  0  0  0
  3 14  1  0  0  0  0
  4  7  1  0  0  0  0
  4 15  1  0  0  0  0
  4 16  1  0  0  0  0
  5  6  1  0  0  0  0
  5  9  1  0  0  0  0
  5 17  1  0  0  0  0
  6  7  1  0  0  0  0
  6 18  1  0  0  0  0
  7  8  1  0  0  0  0
  7 19  1  0  0  0  0
  8  9  1  0  0  0  0
  9 20  1  0  0  0  0
  9 21  1  0  0  0  0
M  END
$$$$
