illihenin_A
 OpenBabel04252411233D

 32 34  0  0  0  0  0  0  0  0999 V2000
   -2.6807   -0.3338   -0.3111 C   0  0  0  0  0  0  0  0  0  0  0  0
   -2.1933    0.7597    0.6192 C   0  0  0  0  0  0  0  0  0  0  0  0
   -1.4761   -0.6448   -1.1937 C   0  0  0  0  0  0  0  0  0  0  0  0
   -0.2137   -0.2225   -0.3921 C   0  0  0  0  0  0  0  0  0  0  0  0
    0.5752    0.8482   -1.1809 C   0  0  0  0  0  0  0  0  0  0  0  0
    1.9591    1.1598   -0.5957 C   0  0  0  0  0  0  0  0  0  0  0  0
   -0.7752    0.3004    0.9607 C   0  0  0  0  0  0  0  0  0  0  0  0
    0.0236    1.4048    1.6455 C   0  0  0  0  0  0  0  0  0  0  0  0
    1.4797    1.0344    1.9120 C   0  0  0  0  0  0  0  0  0  0  0  0
    2.2511    0.4351    0.7216 C   0  0  0  0  0  0  0  0  0  0  0  0
    2.0015   -1.0733    0.5762 C   0  0  0  0  0  0  0  0  0  0  0  0
    0.7125   -1.4287   -0.1649 C   0  0  0  0  0  0  0  0  0  0  0  0
   -3.5525   -0.0248   -0.8957 H   0  0  0  0  0  0  0  0  0  0  0  0
   -2.9599   -1.2232    0.2659 H   0  0  0  0  0  0  0  0  0  0  0  0
   -2.8249    0.8519    1.5083 H   0  0  0  0  0  0  0  0  0  0  0  0
   -2.1867    1.7261    0.1016 H   0  0  0  0  0  0  0  0  0  0  0  0
   -1.5590   -0.0767   -2.1279 H   0  0  0  0  0  0  0  0  0  0  0  0
   -1.4708   -1.7058   -1.4678 H   0  0  0  0  0  0  0  0  0  0  0  0
   -0.0084    1.7741   -1.2601 H   0  0  0  0  0  0  0  0  0  0  0  0
    0.7194    0.5079   -2.2156 H   0  0  0  0  0  0  0  0  0  0  0  0
    2.0733    2.2433   -0.4680 H   0  0  0  0  0  0  0  0  0  0  0  0
    2.7188    0.8666   -1.3323 H   0  0  0  0  0  0  0  0  0  0  0  0
   -0.8610   -0.5412    1.6634 H   0  0  0  0  0  0  0  0  0  0  0  0
   -0.4536    1.6552    2.6018 H   0  0  0  0  0  0  0  0  0  0  0  0
   -0.0134    2.3282    1.0547 H   0  0  0  0  0  0  0  0  0  0  0  0
    1.5292    0.3482    2.7667 H   0  0  0  0  0  0  0  0  0  0  0  0
    1.9972    1.9472    2.2357 H   0  0  0  0  0  0  0  0  0  0  0  0
    3.3175    0.5614    0.9529 H   0  0  0  0  0  0  0  0  0  0  0  0
    2.0078   -1.5559    1.5612 H   0  0  0  0  0  0  0  0  0  0  0  0
    2.8423   -1.5190    0.0282 H   0  0  0  0  0  0  0  0  0  0  0  0
    0.1889   -2.2250    0.3797 H   0  0  0  0  0  0  0  0  0  0  0  0
    0.9803   -1.8653   -1.1370 H   0  0  0  0  0  0  0  0  0  0  0  0
  1  2  1  0  0  0  0
  1  3  1  0  0  0  0
  1 13  1  0  0  0  0
  1 14  1  0  0  0  0
  2  7  1  0  0  0  0
  2 15  1  0  0  0  0
  2 16  1  0  0  0  0
  3  4  1  0  0  0  0
  3 17  1  0  0  0  0
  3 18  1  0  0  0  0
  4  5  1  0  0  0  0
  4  7  1  0  0  0  0
  4 12  1  0  0  0  0
  5  6  1  0  0  0  0
  5 19  1  0  0  0  0
  5 20  1  0  0  0  0
  6 10  1  0  0  0  0
  6 21  1  0  0  0  0
  6 22  1  0  0  0  0
  7  8  1  0  0  0  0
  7 23  1  0  0  0  0
  8  9  1  0  0  0  0
  8 24  1  0  0  0  0
  8 25  1  0  0  0  0
  9 10  1  0  0  0  0
  9 26  1  0  0  0  0
  9 27  1  0  0  0  0
 10 11  1  0  0  0  0
 10 28  1  0  0  0  0
 11 12  1  0  0  0  0
 11 29  1  0  0  0  0
 11 30  1  0  0  0  0
 12 31  1  0  0  0  0
 12 32  1  0  0  0  0
M  END
$$$$
