inaequalisine_A
 OpenBabel04252411233D

 36 39  0  0  0  0  0  0  0  0999 V2000
    1.7004   -0.7945    0.6598 C   0  0  0  0  0  0  0  0  0  0  0  0
    1.7639   -2.1482   -0.0799 C   0  0  0  0  0  0  0  0  0  0  0  0
    0.4947   -2.2411   -0.9298 C   0  0  0  0  0  0  0  0  0  0  0  0
   -0.4219   -1.1524   -0.3766 N   0  3  0  0  0  0  0  0  0  0  0  0
    0.5649   -0.0468   -0.0325 C   0  0  0  0  0  0  0  0  0  0  0  0
   -0.1523    1.0951    0.6946 C   0  0  0  0  0  0  0  0  0  0  0  0
   -1.3478    1.6200   -0.1343 C   0  0  0  0  0  0  0  0  0  0  0  0
   -2.2453    0.4995   -0.7075 C   0  0  0  0  0  0  0  0  0  0  0  0
   -1.4319   -0.6261   -1.3877 C   0  0  0  0  0  0  0  0  0  0  0  0
   -3.0444   -0.0980    0.4178 C   0  0  0  0  0  0  0  0  0  0  0  0
   -2.5457   -1.1289    1.1165 C   0  0  0  0  0  0  0  0  0  0  0  0
   -1.2006   -1.7377    0.8455 C   0  0  0  0  0  0  0  0  0  0  0  0
    1.2595    0.4599   -1.2236 N   0  0  0  0  0  0  0  0  0  0  0  0
    2.6002    0.8890   -0.8037 C   0  0  0  0  0  0  0  0  0  0  0  0
    2.9342    0.0638    0.4269 C   0  0  0  0  0  0  0  0  0  0  0  0
    1.5391   -0.9526    1.7313 H   0  0  0  0  0  0  0  0  0  0  0  0
    1.8010   -2.9673    0.6468 H   0  0  0  0  0  0  0  0  0  0  0  0
    2.6491   -2.2514   -0.7181 H   0  0  0  0  0  0  0  0  0  0  0  0
    0.0036   -3.2176   -0.8708 H   0  0  0  0  0  0  0  0  0  0  0  0
    0.6966   -2.0184   -1.9836 H   0  0  0  0  0  0  0  0  0  0  0  0
    0.5325    1.9289    0.8949 H   0  0  0  0  0  0  0  0  0  0  0  0
   -0.4957    0.7690    1.6831 H   0  0  0  0  0  0  0  0  0  0  0  0
   -0.9712    2.2268   -0.9664 H   0  0  0  0  0  0  0  0  0  0  0  0
   -1.9384    2.3035    0.4895 H   0  0  0  0  0  0  0  0  0  0  0  0
   -2.9393    0.9235   -1.4426 H   0  0  0  0  0  0  0  0  0  0  0  0
   -0.9023   -0.2635   -2.2748 H   0  0  0  0  0  0  0  0  0  0  0  0
   -2.0620   -1.4709   -1.6939 H   0  0  0  0  0  0  0  0  0  0  0  0
   -4.0209    0.3205    0.6515 H   0  0  0  0  0  0  0  0  0  0  0  0
   -3.1346   -1.5592    1.9242 H   0  0  0  0  0  0  0  0  0  0  0  0
   -1.3617   -2.8026    0.6460 H   0  0  0  0  0  0  0  0  0  0  0  0
   -0.5655   -1.6520    1.7318 H   0  0  0  0  0  0  0  0  0  0  0  0
    0.7886    1.2577   -1.6458 H   0  0  0  0  0  0  0  0  0  0  0  0
    2.6035    1.9571   -0.5579 H   0  0  0  0  0  0  0  0  0  0  0  0
    3.3203    0.7263   -1.6110 H   0  0  0  0  0  0  0  0  0  0  0  0
    3.0949    0.7293    1.2831 H   0  0  0  0  0  0  0  0  0  0  0  0
    3.8428   -0.5323    0.2931 H   0  0  0  0  0  0  0  0  0  0  0  0
  1  2  1  0  0  0  0
  1  5  1  0  0  0  0
  1 15  1  0  0  0  0
  1 16  1  0  0  0  0
  2  3  1  0  0  0  0
  2 17  1  0  0  0  0
  2 18  1  0  0  0  0
  3  4  1  0  0  0  0
  3 19  1  0  0  0  0
  3 20  1  0  0  0  0
  4  5  1  0  0  0  0
  4  9  1  0  0  0  0
  4 12  1  0  0  0  0
  5  6  1  0  0  0  0
  5 13  1  0  0  0  0
  6  7  1  0  0  0  0
  6 21  1  0  0  0  0
  6 22  1  0  0  0  0
  7  8  1  0  0  0  0
  7 23  1  0  0  0  0
  7 24  1  0  0  0  0
  8  9  1  0  0  0  0
  8 10  1  0  0  0  0
  8 25  1  0  0  0  0
  9 26  1  0  0  0  0
  9 27  1  0  0  0  0
 10 11  2  0  0  0  0
 10 28  1  0  0  0  0
 11 12  1  0  0  0  0
 11 29  1  0  0  0  0
 12 30  1  0  0  0  0
 12 31  1  0  0  0  0
 13 14  1  0  0  0  0
 13 32  1  0  0  0  0
 14 15  1  0  0  0  0
 14 33  1  0  0  0  0
 14 34  1  0  0  0  0
 15 35  1  0  0  0  0
 15 36  1  0  0  0  0
M  CHG  1   4   1
M  END
$$$$
