incargranine_A
 OpenBabel04252411243D

 33 36  0  0  0  0  0  0  0  0999 V2000
   -2.7544   -0.7042    0.2354 C   0  0  0  0  0  0  0  0  0  0  0  0
   -3.3663    0.6552   -0.0465 C   0  0  0  0  0  0  0  0  0  0  0  0
   -2.2638    1.5932    0.1887 N   0  0  0  0  0  0  0  0  0  0  0  0
   -1.0769    0.9478   -0.3939 C   0  0  0  0  0  0  0  0  0  0  0  0
    0.2740    1.2864    0.2814 C   0  0  0  0  0  0  0  0  0  0  0  0
    0.2806    0.8446    1.7590 C   0  0  0  0  0  0  0  0  0  0  0  0
   -0.0801   -0.6411    1.8722 C   0  0  0  0  0  0  0  0  0  0  0  0
   -1.3400   -0.5739   -0.3223 C   0  0  0  0  0  0  0  0  0  0  0  0
   -0.2078   -1.2776    0.4698 C   0  0  0  0  0  0  0  0  0  0  0  0
    1.0915   -1.0345   -0.3446 C   0  0  0  0  0  0  0  0  0  0  0  0
    1.3517    0.4785   -0.4734 C   0  0  0  0  0  0  0  0  0  0  0  0
    2.6684    0.7211    0.0379 O   0  0  0  0  0  0  0  0  0  0  0  0
    3.3910   -0.5084   -0.0827 C   0  0  0  0  0  0  0  0  0  0  0  0
    2.3823   -1.5906    0.2339 C   0  0  0  0  0  0  0  0  0  0  0  0
   -3.3099   -1.5085   -0.2578 H   0  0  0  0  0  0  0  0  0  0  0  0
   -2.7695   -0.9094    1.3092 H   0  0  0  0  0  0  0  0  0  0  0  0
   -4.2211    0.8669    0.6025 H   0  0  0  0  0  0  0  0  0  0  0  0
   -3.7018    0.7281   -1.0876 H   0  0  0  0  0  0  0  0  0  0  0  0
   -2.1419    1.7015    1.1944 H   0  0  0  0  0  0  0  0  0  0  0  0
   -1.0271    1.2496   -1.4489 H   0  0  0  0  0  0  0  0  0  0  0  0
    0.4922    2.3588    0.2244 H   0  0  0  0  0  0  0  0  0  0  0  0
   -0.4157    1.4446    2.3548 H   0  0  0  0  0  0  0  0  0  0  0  0
    1.2694    1.0168    2.2013 H   0  0  0  0  0  0  0  0  0  0  0  0
   -1.0097   -0.7491    2.4398 H   0  0  0  0  0  0  0  0  0  0  0  0
    0.6722   -1.1592    2.4758 H   0  0  0  0  0  0  0  0  0  0  0  0
   -1.3560   -0.9713   -1.3474 H   0  0  0  0  0  0  0  0  0  0  0  0
   -0.4108   -2.3505    0.5580 H   0  0  0  0  0  0  0  0  0  0  0  0
    0.9563   -1.4522   -1.3518 H   0  0  0  0  0  0  0  0  0  0  0  0
    1.3601    0.7678   -1.5321 H   0  0  0  0  0  0  0  0  0  0  0  0
    4.2411   -0.5086    0.6046 H   0  0  0  0  0  0  0  0  0  0  0  0
    3.7645   -0.5945   -1.1094 H   0  0  0  0  0  0  0  0  0  0  0  0
    2.3283   -1.7294    1.3163 H   0  0  0  0  0  0  0  0  0  0  0  0
    2.6607   -2.5549   -0.2017 H   0  0  0  0  0  0  0  0  0  0  0  0
  1  2  1  0  0  0  0
  1  8  1  0  0  0  0
  1 15  1  0  0  0  0
  1 16  1  0  0  0  0
  2  3  1  0  0  0  0
  2 17  1  0  0  0  0
  2 18  1  0  0  0  0
  3  4  1  0  0  0  0
  3 19  1  0  0  0  0
  4  5  1  0  0  0  0
  4  8  1  0  0  0  0
  4 20  1  0  0  0  0
  5  6  1  0  0  0  0
  5 11  1  0  0  0  0
  5 21  1  0  0  0  0
  6  7  1  0  0  0  0
  6 22  1  0  0  0  0
  6 23  1  0  0  0  0
  7  9  1  0  0  0  0
  7 24  1  0  0  0  0
  7 25  1  0  0  0  0
  8  9  1  0  0  0  0
  8 26  1  0  0  0  0
  9 10  1  0  0  0  0
  9 27  1  0  0  0  0
 10 11  1  0  0  0  0
 10 14  1  0  0  0  0
 10 28  1  0  0  0  0
 11 12  1  0  0  0  0
 11 29  1  0  0  0  0
 12 13  1  0  0  0  0
 13 14  1  0  0  0  0
 13 30  1  0  0  0  0
 13 31  1  0  0  0  0
 14 32  1  0  0  0  0
 14 33  1  0  0  0  0
M  END
$$$$
