ingenol
 OpenBabel04252411243D

 35 38  0  0  0  0  0  0  0  0999 V2000
    1.4476   -0.7139   -0.3439 C   0  0  0  0  0  0  0  0  0  0  0  0
    2.7951   -0.9601    0.2827 C   0  0  0  0  0  0  0  0  0  0  0  0
    4.0777   -1.5039   -0.2067 C   0  0  0  0  0  0  0  0  0  0  0  0
    5.2132   -0.4600   -0.3198 C   0  0  0  0  0  0  0  0  0  0  0  0
    2.4735    0.3794   -0.3298 C   0  0  0  0  0  0  0  0  0  0  0  0
    2.7990    1.5217    0.5907 C   0  0  0  0  0  0  0  0  0  0  0  0
    4.2638    1.9291    0.2871 C   0  0  0  0  0  0  0  0  0  0  0  0
    2.4888    1.3260    2.0627 C   0  0  0  0  0  0  0  0  0  0  0  0
    3.1944    0.6995    3.0240 C   0  0  0  0  0  0  0  0  0  0  0  0
    4.5350    0.0077    2.9409 C   0  0  0  0  0  0  0  0  0  0  0  0
    5.5587    0.7355    2.0938 C   0  0  0  0  0  0  0  0  0  0  0  0
    5.3323    0.8421    0.5654 C   0  0  0  0  0  0  0  0  0  0  0  0
    6.7288    1.3726    0.2131 C   0  0  0  0  0  0  0  0  0  0  0  0
    7.6437    1.0000    1.1207 C   0  0  0  0  0  0  0  0  0  0  0  0
    7.0045    0.2564    2.2532 C   0  0  0  0  0  0  0  0  0  0  0  0
    0.5882   -0.6052    0.3080 H   0  0  0  0  0  0  0  0  0  0  0  0
    1.2315   -1.2116   -1.2821 H   0  0  0  0  0  0  0  0  0  0  0  0
    2.6821   -1.1901    1.3342 H   0  0  0  0  0  0  0  0  0  0  0  0
    3.9377   -1.9880   -1.1811 H   0  0  0  0  0  0  0  0  0  0  0  0
    4.4040   -2.2983    0.4761 H   0  0  0  0  0  0  0  0  0  0  0  0
    5.1978   -0.1158   -1.3664 H   0  0  0  0  0  0  0  0  0  0  0  0
    6.1461   -1.0389   -0.2482 H   0  0  0  0  0  0  0  0  0  0  0  0
    2.8027    0.6194   -1.3408 H   0  0  0  0  0  0  0  0  0  0  0  0
    2.1797    2.3698    0.2667 H   0  0  0  0  0  0  0  0  0  0  0  0
    4.4966    2.8458    0.8477 H   0  0  0  0  0  0  0  0  0  0  0  0
    4.3335    2.2222   -0.7709 H   0  0  0  0  0  0  0  0  0  0  0  0
    1.5185    1.7287    2.3564 H   0  0  0  0  0  0  0  0  0  0  0  0
    2.7328    0.6473    4.0109 H   0  0  0  0  0  0  0  0  0  0  0  0
    4.4213   -1.0374    2.6420 H   0  0  0  0  0  0  0  0  0  0  0  0
    4.9262   -0.0322    3.9672 H   0  0  0  0  0  0  0  0  0  0  0  0
    5.5629    1.7655    2.4996 H   0  0  0  0  0  0  0  0  0  0  0  0
    6.9553    1.8994   -0.7051 H   0  0  0  0  0  0  0  0  0  0  0  0
    8.7039    1.1993    1.0510 H   0  0  0  0  0  0  0  0  0  0  0  0
    7.4193    0.5628    3.2183 H   0  0  0  0  0  0  0  0  0  0  0  0
    7.1169   -0.8255    2.1335 H   0  0  0  0  0  0  0  0  0  0  0  0
  1  2  1  0  0  0  0
  1  5  1  0  0  0  0
  1 16  1  0  0  0  0
  1 17  1  0  0  0  0
  2  3  1  0  0  0  0
  2  5  1  0  0  0  0
  2 18  1  0  0  0  0
  3  4  1  0  0  0  0
  3 19  1  0  0  0  0
  3 20  1  0  0  0  0
  4 12  1  0  0  0  0
  4 21  1  0  0  0  0
  4 22  1  0  0  0  0
  5  6  1  0  0  0  0
  5 23  1  0  0  0  0
  6  7  1  0  0  0  0
  6  8  1  0  0  0  0
  6 24  1  0  0  0  0
  7 12  1  0  0  0  0
  7 25  1  0  0  0  0
  7 26  1  0  0  0  0
  8  9  2  0  0  0  0
  8 27  1  0  0  0  0
  9 10  1  0  0  0  0
  9 28  1  0  0  0  0
 10 11  1  0  0  0  0
 10 29  1  0  0  0  0
 10 30  1  0  0  0  0
 11 12  1  0  0  0  0
 11 15  1  0  0  0  0
 11 31  1  0  0  0  0
 12 13  1  0  0  0  0
 13 14  2  0  0  0  0
 13 32  1  0  0  0  0
 14 15  1  0  0  0  0
 14 33  1  0  0  0  0
 15 34  1  0  0  0  0
 15 35  1  0  0  0  0
M  END
$$$$
