jatamanin_H
 OpenBabel04252411233D

 25 27  0  0  0  0  0  0  0  0999 V2000
    1.2804   -1.3169    1.1146 C   0  0  0  0  0  0  0  0  0  0  0  0
    1.9268   -1.1127   -0.2663 C   0  0  0  0  0  0  0  0  0  0  0  0
   -0.1657   -0.8202    0.9588 C   0  0  0  0  0  0  0  0  0  0  0  0
   -0.2992    0.6970    1.1838 C   0  0  0  0  0  0  0  0  0  0  0  0
    0.7288    1.4578    0.3271 C   0  0  0  0  0  0  0  0  0  0  0  0
    0.8472    0.9484   -1.0059 O   0  0  0  0  0  0  0  0  0  0  0  0
    0.8184   -0.4778   -1.1186 C   0  0  0  0  0  0  0  0  0  0  0  0
   -0.4572   -1.0805   -0.5177 C   0  0  0  0  0  0  0  0  0  0  0  0
   -1.7799   -0.4697   -0.9749 C   0  0  0  0  0  0  0  0  0  0  0  0
   -1.9707    0.8872   -0.5878 O   0  0  0  0  0  0  0  0  0  0  0  0
   -1.7222    1.1142    0.7958 C   0  0  0  0  0  0  0  0  0  0  0  0
    1.8224   -0.7920    1.9078 H   0  0  0  0  0  0  0  0  0  0  0  0
    1.2886   -2.3847    1.3636 H   0  0  0  0  0  0  0  0  0  0  0  0
    2.2142   -2.0875   -0.6770 H   0  0  0  0  0  0  0  0  0  0  0  0
    2.8234   -0.4884   -0.2032 H   0  0  0  0  0  0  0  0  0  0  0  0
   -0.8469   -1.3685    1.6189 H   0  0  0  0  0  0  0  0  0  0  0  0
   -0.1367    0.9393    2.2406 H   0  0  0  0  0  0  0  0  0  0  0  0
    1.7190    1.4194    0.7957 H   0  0  0  0  0  0  0  0  0  0  0  0
    0.4694    2.5198    0.2561 H   0  0  0  0  0  0  0  0  0  0  0  0
    0.9328   -0.7299   -2.1771 H   0  0  0  0  0  0  0  0  0  0  0  0
   -0.4789   -2.1600   -0.7197 H   0  0  0  0  0  0  0  0  0  0  0  0
   -2.6145   -1.0531   -0.5676 H   0  0  0  0  0  0  0  0  0  0  0  0
   -1.8575   -0.5171   -2.0661 H   0  0  0  0  0  0  0  0  0  0  0  0
   -2.4695    0.5743    1.3898 H   0  0  0  0  0  0  0  0  0  0  0  0
   -1.8684    2.1829    0.9857 H   0  0  0  0  0  0  0  0  0  0  0  0
  1  2  1  0  0  0  0
  1  3  1  0  0  0  0
  1 12  1  0  0  0  0
  1 13  1  0  0  0  0
  2  7  1  0  0  0  0
  2 14  1  0  0  0  0
  2 15  1  0  0  0  0
  3  4  1  0  0  0  0
  3  8  1  0  0  0  0
  3 16  1  0  0  0  0
  4  5  1  0  0  0  0
  4 11  1  0  0  0  0
  4 17  1  0  0  0  0
  5  6  1  0  0  0  0
  5 18  1  0  0  0  0
  5 19  1  0  0  0  0
  6  7  1  0  0  0  0
  7  8  1  0  0  0  0
  7 20  1  0  0  0  0
  8  9  1  0  0  0  0
  8 21  1  0  0  0  0
  9 10  1  0  0  0  0
  9 22  1  0  0  0  0
  9 23  1  0  0  0  0
 10 11  1  0  0  0  0
 11 24  1  0  0  0  0
 11 25  1  0  0  0  0
M  END
$$$$
