jiadifenolide
 OpenBabel04252411233D

 22 24  0  0  0  0  0  0  0  0999 V2000
    0.2519    0.7330    0.7498 C   0  0  0  0  0  0  0  0  0  0  0  0
   -1.0495    1.4339    0.4719 C   0  0  0  0  0  0  0  0  0  0  0  0
   -1.2808    0.8303   -0.8848 C   0  0  0  0  0  0  0  0  0  0  0  0
    0.0881    0.8840   -1.5000 O   0  0  0  0  0  0  0  0  0  0  0  0
    1.0982    1.0904   -0.4181 C   0  0  0  0  0  0  0  0  0  0  0  0
    2.2374    0.0156   -0.2280 C   0  0  0  0  0  0  0  0  0  0  0  0
    1.6491   -1.0726    0.6299 O   0  0  0  0  0  0  0  0  0  0  0  0
    0.3016   -0.7781    0.3946 C   0  0  0  0  0  0  0  0  0  0  0  0
   -1.0508   -1.3931    0.5504 C   0  0  0  0  0  0  0  0  0  0  0  0
   -1.8401   -0.6385   -0.6074 C   0  0  0  0  0  0  0  0  0  0  0  0
    0.6970    0.9767    1.7197 H   0  0  0  0  0  0  0  0  0  0  0  0
   -0.9063    2.5190    0.4162 H   0  0  0  0  0  0  0  0  0  0  0  0
   -1.8413    1.2205    1.1955 H   0  0  0  0  0  0  0  0  0  0  0  0
   -1.9666    1.3930   -1.5235 H   0  0  0  0  0  0  0  0  0  0  0  0
    1.4673    2.1171   -0.4804 H   0  0  0  0  0  0  0  0  0  0  0  0
    3.0885    0.4170    0.3291 H   0  0  0  0  0  0  0  0  0  0  0  0
    2.5569   -0.4275   -1.1760 H   0  0  0  0  0  0  0  0  0  0  0  0
    0.3572   -1.0495   -0.6776 H   0  0  0  0  0  0  0  0  0  0  0  0
   -1.4870   -1.1874    1.5331 H   0  0  0  0  0  0  0  0  0  0  0  0
   -1.0570   -2.4762    0.3951 H   0  0  0  0  0  0  0  0  0  0  0  0
   -2.9003   -0.5923   -0.3344 H   0  0  0  0  0  0  0  0  0  0  0  0
   -1.7520   -1.2210   -1.5327 H   0  0  0  0  0  0  0  0  0  0  0  0
  1  2  1  0  0  0  0
  1  5  1  0  0  0  0
  1  8  1  0  0  0  0
  1 11  1  0  0  0  0
  2  3  1  0  0  0  0
  2 12  1  0  0  0  0
  2 13  1  0  0  0  0
  3  4  1  0  0  0  0
  3 10  1  0  0  0  0
  3 14  1  0  0  0  0
  4  5  1  0  0  0  0
  5  6  1  0  0  0  0
  5 15  1  0  0  0  0
  6  7  1  0  0  0  0
  6 16  1  0  0  0  0
  6 17  1  0  0  0  0
  7  8  1  0  0  0  0
  8  9  1  0  0  0  0
  8 18  1  0  0  0  0
  9 10  1  0  0  0  0
  9 19  1  0  0  0  0
  9 20  1  0  0  0  0
 10 21  1  0  0  0  0
 10 22  1  0  0  0  0
M  END
$$$$
