KB343
 OpenBabel04252411233D

 33 35  0  0  0  0  0  0  0  0999 V2000
    0.5157   -0.8160    1.0081 C   0  0  0  0  0  0  0  0  0  0  0  0
   -0.2567   -1.7592    1.9246 C   0  0  0  0  0  0  0  0  0  0  0  0
   -1.2365   -0.9151    2.7962 C   0  0  0  0  0  0  0  0  0  0  0  0
   -1.8594    0.3058    2.0589 C   0  0  0  0  0  0  0  0  0  0  0  0
   -1.8310   -0.0088    0.5793 C   0  0  0  0  0  0  0  0  0  0  0  0
   -2.5527    0.7417   -0.4387 N   0  0  0  0  0  0  0  0  0  0  0  0
   -2.0075    0.1332   -1.6662 C   0  0  0  0  0  0  0  0  0  0  0  0
   -0.8012   -0.6210   -1.2766 N   0  0  0  0  0  0  0  0  0  0  0  0
   -0.3974   -0.0474    0.0196 C   0  0  0  0  0  0  0  0  0  0  0  0
    0.3888    1.2662   -0.2631 C   0  0  0  0  0  0  0  0  0  0  0  0
    1.7627    0.9587   -0.9035 C   0  0  0  0  0  0  0  0  0  0  0  0
    2.5742   -0.1400   -0.1958 C   0  0  0  0  0  0  0  0  0  0  0  0
    1.7458   -1.3443    0.2843 C   0  0  0  0  0  0  0  0  0  0  0  0
    0.9188   -0.0813    1.7265 H   0  0  0  0  0  0  0  0  0  0  0  0
    0.4226   -2.3098    2.5853 H   0  0  0  0  0  0  0  0  0  0  0  0
   -0.8044   -2.5072    1.3397 H   0  0  0  0  0  0  0  0  0  0  0  0
   -0.7155   -0.5519    3.6904 H   0  0  0  0  0  0  0  0  0  0  0  0
   -2.0363   -1.5761    3.1516 H   0  0  0  0  0  0  0  0  0  0  0  0
   -1.2926    1.2169    2.2808 H   0  0  0  0  0  0  0  0  0  0  0  0
   -2.8827    0.4651    2.4163 H   0  0  0  0  0  0  0  0  0  0  0  0
   -2.2958   -1.0111    0.5297 H   0  0  0  0  0  0  0  0  0  0  0  0
   -2.2713    1.7178   -0.4046 H   0  0  0  0  0  0  0  0  0  0  0  0
   -1.7706    0.9108   -2.4006 H   0  0  0  0  0  0  0  0  0  0  0  0
   -2.7389   -0.5487   -2.1112 H   0  0  0  0  0  0  0  0  0  0  0  0
   -0.0895   -0.5329   -1.9937 H   0  0  0  0  0  0  0  0  0  0  0  0
    0.5413    1.8217    0.6713 H   0  0  0  0  0  0  0  0  0  0  0  0
   -0.1501    1.9540   -0.9245 H   0  0  0  0  0  0  0  0  0  0  0  0
    2.3568    1.8799   -0.9356 H   0  0  0  0  0  0  0  0  0  0  0  0
    1.6176    0.6643   -1.9496 H   0  0  0  0  0  0  0  0  0  0  0  0
    3.0619    0.3107    0.6788 H   0  0  0  0  0  0  0  0  0  0  0  0
    3.3817   -0.4844   -0.8521 H   0  0  0  0  0  0  0  0  0  0  0  0
    2.3585   -1.9546    0.9577 H   0  0  0  0  0  0  0  0  0  0  0  0
    1.4673   -1.9818   -0.5618 H   0  0  0  0  0  0  0  0  0  0  0  0
  1  2  1  0  0  0  0
  1  9  1  0  0  0  0
  1 13  1  0  0  0  0
  1 14  1  0  0  0  0
  2  3  1  0  0  0  0
  2 15  1  0  0  0  0
  2 16  1  0  0  0  0
  3  4  1  0  0  0  0
  3 17  1  0  0  0  0
  3 18  1  0  0  0  0
  4  5  1  0  0  0  0
  4 19  1  0  0  0  0
  4 20  1  0  0  0  0
  5  6  1  0  0  0  0
  5  9  1  0  0  0  0
  5 21  1  0  0  0  0
  6  7  1  0  0  0  0
  6 22  1  0  0  0  0
  7  8  1  0  0  0  0
  7 23  1  0  0  0  0
  7 24  1  0  0  0  0
  8  9  1  0  0  0  0
  8 25  1  0  0  0  0
  9 10  1  0  0  0  0
 10 11  1  0  0  0  0
 10 26  1  0  0  0  0
 10 27  1  0  0  0  0
 11 12  1  0  0  0  0
 11 28  1  0  0  0  0
 11 29  1  0  0  0  0
 12 13  1  0  0  0  0
 12 30  1  0  0  0  0
 12 31  1  0  0  0  0
 13 32  1  0  0  0  0
 13 33  1  0  0  0  0
M  END
$$$$
