kopsine
 OpenBabel04252411233D

 35 38  0  0  0  0  0  0  0  0999 V2000
    2.9145    1.6234   -0.6471 C   0  0  0  0  0  0  0  0  0  0  0  0
    1.8453    0.5728   -0.9813 C   0  0  0  0  0  0  0  0  0  0  0  0
    2.6445   -0.7136   -1.2275 C   0  0  0  0  0  0  0  0  0  0  0  0
    3.6655   -0.5793   -0.2080 N   0  0  0  0  0  0  0  0  0  0  0  0
    4.7777   -1.5120   -0.1973 C   0  0  0  0  0  0  0  0  0  0  0  0
    5.6473   -1.2265    1.0475 C   0  0  0  0  0  0  0  0  0  0  0  0
    6.0071    0.2658    1.2387 C   0  0  0  0  0  0  0  0  0  0  0  0
    4.1502    0.7925   -0.3110 C   0  0  0  0  0  0  0  0  0  0  0  0
    4.7951    1.1945    1.0232 C   0  0  0  0  0  0  0  0  0  0  0  0
    3.7608    1.0805    2.1785 C   0  0  0  0  0  0  0  0  0  0  0  0
    2.4947    1.8868    1.8517 C   0  0  0  0  0  0  0  0  0  0  0  0
    2.6481    2.6141    0.5045 C   0  0  0  0  0  0  0  0  0  0  0  0
    3.8970    3.5260    0.6245 C   0  0  0  0  0  0  0  0  0  0  0  0
    5.1662    2.6894    0.9104 C   0  0  0  0  0  0  0  0  0  0  0  0
    3.1105    2.1966   -1.5643 H   0  0  0  0  0  0  0  0  0  0  0  0
    1.1402    0.4321   -0.1555 H   0  0  0  0  0  0  0  0  0  0  0  0
    1.2643    0.8571   -1.8647 H   0  0  0  0  0  0  0  0  0  0  0  0
    3.0682   -0.7231   -2.2389 H   0  0  0  0  0  0  0  0  0  0  0  0
    2.0237   -1.6032   -1.0875 H   0  0  0  0  0  0  0  0  0  0  0  0
    5.3840   -1.4260   -1.1075 H   0  0  0  0  0  0  0  0  0  0  0  0
    4.4117   -2.5434   -0.1424 H   0  0  0  0  0  0  0  0  0  0  0  0
    6.5693   -1.8168    0.9905 H   0  0  0  0  0  0  0  0  0  0  0  0
    5.1125   -1.5760    1.9398 H   0  0  0  0  0  0  0  0  0  0  0  0
    6.7921    0.5217    0.5149 H   0  0  0  0  0  0  0  0  0  0  0  0
    6.4388    0.4166    2.2350 H   0  0  0  0  0  0  0  0  0  0  0  0
    4.8694    0.8944   -1.1384 H   0  0  0  0  0  0  0  0  0  0  0  0
    4.2015    1.4533    3.1122 H   0  0  0  0  0  0  0  0  0  0  0  0
    3.4790    0.0409    2.3798 H   0  0  0  0  0  0  0  0  0  0  0  0
    2.3125    2.6161    2.6509 H   0  0  0  0  0  0  0  0  0  0  0  0
    1.6221    1.2254    1.8446 H   0  0  0  0  0  0  0  0  0  0  0  0
    1.7573    3.2155    0.2938 H   0  0  0  0  0  0  0  0  0  0  0  0
    3.7520    4.2594    1.4270 H   0  0  0  0  0  0  0  0  0  0  0  0
    4.0359    4.0997   -0.2999 H   0  0  0  0  0  0  0  0  0  0  0  0
    5.6415    3.0414    1.8342 H   0  0  0  0  0  0  0  0  0  0  0  0
    5.8955    2.8475    0.1061 H   0  0  0  0  0  0  0  0  0  0  0  0
  1  2  1  0  0  0  0
  1  8  1  0  0  0  0
  1 12  1  0  0  0  0
  1 15  1  0  0  0  0
  2  3  1  0  0  0  0
  2 16  1  0  0  0  0
  2 17  1  0  0  0  0
  3  4  1  0  0  0  0
  3 18  1  0  0  0  0
  3 19  1  0  0  0  0
  4  5  1  0  0  0  0
  4  8  1  0  0  0  0
  5  6  1  0  0  0  0
  5 20  1  0  0  0  0
  5 21  1  0  0  0  0
  6  7  1  0  0  0  0
  6 22  1  0  0  0  0
  6 23  1  0  0  0  0
  7  9  1  0  0  0  0
  7 24  1  0  0  0  0
  7 25  1  0  0  0  0
  8  9  1  0  0  0  0
  8 26  1  0  0  0  0
  9 10  1  0  0  0  0
  9 14  1  0  0  0  0
 10 11  1  0  0  0  0
 10 27  1  0  0  0  0
 10 28  1  0  0  0  0
 11 12  1  0  0  0  0
 11 29  1  0  0  0  0
 11 30  1  0  0  0  0
 12 13  1  0  0  0  0
 12 31  1  0  0  0  0
 13 14  1  0  0  0  0
 13 32  1  0  0  0  0
 13 33  1  0  0  0  0
 14 34  1  0  0  0  0
 14 35  1  0  0  0  0
M  END
$$$$
