longifolactone_F
 OpenBabel04252411233D

 32 35  0  0  0  0  0  0  0  0999 V2000
    1.4701   -0.6785   -0.5826 C   0  0  0  0  0  0  0  0  0  0  0  0
    0.5554   -1.1659   -1.8159 C   0  0  0  0  0  0  0  0  0  0  0  0
   -0.8199   -1.2091   -1.2143 C   0  0  0  0  0  0  0  0  0  0  0  0
   -2.1591   -1.0330   -1.5753 O   0  0  0  0  0  0  0  0  0  0  0  0
   -2.7992   -0.3917   -0.3816 C   0  0  0  0  0  0  0  0  0  0  0  0
   -0.7822   -2.0796    0.0420 C   0  0  0  0  0  0  0  0  0  0  0  0
    2.5175    0.3609   -1.0243 C   0  0  0  0  0  0  0  0  0  0  0  0
    2.3534    1.7445   -0.3947 C   0  0  0  0  0  0  0  0  0  0  0  0
    0.8912    2.1224   -0.2250 C   0  0  0  0  0  0  0  0  0  0  0  0
    0.2131    1.2279    0.8060 C   0  0  0  0  0  0  0  0  0  0  0  0
    0.6771   -0.2308    0.7613 C   0  0  0  0  0  0  0  0  0  0  0  0
   -0.6334   -1.0014    1.0716 C   0  0  0  0  0  0  0  0  0  0  0  0
   -1.8145   -0.0097    0.8521 C   0  0  0  0  0  0  0  0  0  0  0  0
   -1.2140    1.2843    0.6197 O   0  0  0  0  0  0  0  0  0  0  0  0
    2.0329   -1.5800   -0.2960 H   0  0  0  0  0  0  0  0  0  0  0  0
    0.8815   -2.1495   -2.1710 H   0  0  0  0  0  0  0  0  0  0  0  0
    0.6004   -0.4803   -2.6702 H   0  0  0  0  0  0  0  0  0  0  0  0
   -0.7132   -0.1346   -1.0697 H   0  0  0  0  0  0  0  0  0  0  0  0
   -3.5506   -1.1073   -0.0307 H   0  0  0  0  0  0  0  0  0  0  0  0
   -3.3063    0.5063   -0.7481 H   0  0  0  0  0  0  0  0  0  0  0  0
    0.0494   -2.7925    0.0670 H   0  0  0  0  0  0  0  0  0  0  0  0
   -1.6988   -2.6623    0.1918 H   0  0  0  0  0  0  0  0  0  0  0  0
    2.5148    0.4642   -2.1158 H   0  0  0  0  0  0  0  0  0  0  0  0
    3.5197   -0.0091   -0.7724 H   0  0  0  0  0  0  0  0  0  0  0  0
    2.8622    2.4871   -1.0201 H   0  0  0  0  0  0  0  0  0  0  0  0
    2.8531    1.7652    0.5819 H   0  0  0  0  0  0  0  0  0  0  0  0
    0.3711    2.0672   -1.1897 H   0  0  0  0  0  0  0  0  0  0  0  0
    0.8057    3.1677    0.0959 H   0  0  0  0  0  0  0  0  0  0  0  0
    0.4064    1.6257    1.8105 H   0  0  0  0  0  0  0  0  0  0  0  0
    1.3913   -0.3881    1.5816 H   0  0  0  0  0  0  0  0  0  0  0  0
   -0.6374   -1.3999    2.0910 H   0  0  0  0  0  0  0  0  0  0  0  0
   -2.4225    0.0845    1.7584 H   0  0  0  0  0  0  0  0  0  0  0  0
  1  2  1  0  0  0  0
  1  7  1  0  0  0  0
  1 11  1  0  0  0  0
  1 15  1  0  0  0  0
  2  3  1  0  0  0  0
  2 16  1  0  0  0  0
  2 17  1  0  0  0  0
  3  4  1  0  0  0  0
  3  6  1  0  0  0  0
  3 18  1  0  0  0  0
  4  5  1  0  0  0  0
  5 13  1  0  0  0  0
  5 19  1  0  0  0  0
  5 20  1  0  0  0  0
  6 12  1  0  0  0  0
  6 21  1  0  0  0  0
  6 22  1  0  0  0  0
  7  8  1  0  0  0  0
  7 23  1  0  0  0  0
  7 24  1  0  0  0  0
  8  9  1  0  0  0  0
  8 25  1  0  0  0  0
  8 26  1  0  0  0  0
  9 10  1  0  0  0  0
  9 27  1  0  0  0  0
  9 28  1  0  0  0  0
 10 11  1  0  0  0  0
 10 14  1  0  0  0  0
 10 29  1  0  0  0  0
 11 12  1  0  0  0  0
 11 30  1  0  0  0  0
 12 13  1  0  0  0  0
 12 31  1  0  0  0  0
 13 14  1  0  0  0  0
 13 32  1  0  0  0  0
M  END
$$$$
