myriberine
 OpenBabel04252411243D

 48 52  0  0  0  0  0  0  0  0999 V2000
    1.9246    0.5826    0.9990 C   0  0  0  0  0  0  0  0  0  0  0  0
    1.3278   -0.6674    1.6459 C   0  0  0  0  0  0  0  0  0  0  0  0
    2.1692   -1.7691    1.1179 C   0  0  0  0  0  0  0  0  0  0  0  0
    3.1968   -1.2950    0.4149 C   0  0  0  0  0  0  0  0  0  0  0  0
    4.3498   -2.0340   -0.1270 C   0  0  0  0  0  0  0  0  0  0  0  0
    5.5344   -1.6324    0.7421 C   0  0  0  0  0  0  0  0  0  0  0  0
    6.7856   -2.3441    0.2225 C   0  0  0  0  0  0  0  0  0  0  0  0
    8.0482   -1.7960    0.8466 C   0  0  0  0  0  0  0  0  0  0  0  0
    8.1979   -0.3622    0.3960 C   0  0  0  0  0  0  0  0  0  0  0  0
    3.2358    0.1900    0.2750 C   0  0  0  0  0  0  0  0  0  0  0  0
    4.4671    0.8180    0.7837 N   0  0  0  0  0  0  0  0  0  0  0  0
    5.6403   -0.0800    1.0188 C   0  0  0  0  0  0  0  0  0  0  0  0
    7.0640    0.5385    0.8998 C   0  0  0  0  0  0  0  0  0  0  0  0
    7.0718    1.8125    0.0792 C   0  0  0  0  0  0  0  0  0  0  0  0
    6.0280    2.6861    0.5973 N   0  0  0  0  0  0  0  0  0  0  0  0
    4.7160    2.1562    0.1967 C   0  0  0  0  0  0  0  0  0  0  0  0
    3.6080    3.1570    0.6242 C   0  0  0  0  0  0  0  0  0  0  0  0
    3.8654    4.5991    0.2026 C   0  0  0  0  0  0  0  0  0  0  0  0
    5.2464    5.0319    0.6462 C   0  0  0  0  0  0  0  0  0  0  0  0
    6.2775    4.0512    0.1123 C   0  0  0  0  0  0  0  0  0  0  0  0
    2.0599    1.3510    1.7656 H   0  0  0  0  0  0  0  0  0  0  0  0
    1.2140    0.9906    0.2670 H   0  0  0  0  0  0  0  0  0  0  0  0
    0.2752   -0.7941    1.3780 H   0  0  0  0  0  0  0  0  0  0  0  0
    1.4087   -0.6170    2.7369 H   0  0  0  0  0  0  0  0  0  0  0  0
    2.0137   -2.8102    1.3695 H   0  0  0  0  0  0  0  0  0  0  0  0
    4.5103   -1.7724   -1.1791 H   0  0  0  0  0  0  0  0  0  0  0  0
    4.1866   -3.1174   -0.0810 H   0  0  0  0  0  0  0  0  0  0  0  0
    5.3469   -2.0851    1.7316 H   0  0  0  0  0  0  0  0  0  0  0  0
    6.8482   -2.2550   -0.8699 H   0  0  0  0  0  0  0  0  0  0  0  0
    6.7103   -3.4174    0.4384 H   0  0  0  0  0  0  0  0  0  0  0  0
    8.9112   -2.3811    0.5097 H   0  0  0  0  0  0  0  0  0  0  0  0
    8.0114   -1.8638    1.9398 H   0  0  0  0  0  0  0  0  0  0  0  0
    8.2456   -0.3362   -0.7010 H   0  0  0  0  0  0  0  0  0  0  0  0
    9.1590    0.0327    0.7488 H   0  0  0  0  0  0  0  0  0  0  0  0
    3.1326    0.4122   -0.7966 H   0  0  0  0  0  0  0  0  0  0  0  0
    5.5567   -0.1086    2.1208 H   0  0  0  0  0  0  0  0  0  0  0  0
    7.3546    0.8273    1.9238 H   0  0  0  0  0  0  0  0  0  0  0  0
    6.9404    1.6083   -0.9924 H   0  0  0  0  0  0  0  0  0  0  0  0
    8.0585    2.2822    0.1909 H   0  0  0  0  0  0  0  0  0  0  0  0
    4.6897    2.0764   -0.9001 H   0  0  0  0  0  0  0  0  0  0  0  0
    3.4912    3.1343    1.7160 H   0  0  0  0  0  0  0  0  0  0  0  0
    2.6493    2.8784    0.1774 H   0  0  0  0  0  0  0  0  0  0  0  0
    3.1062    5.2575    0.6395 H   0  0  0  0  0  0  0  0  0  0  0  0
    3.7794    4.6862   -0.8871 H   0  0  0  0  0  0  0  0  0  0  0  0
    5.2959    5.0717    1.7419 H   0  0  0  0  0  0  0  0  0  0  0  0
    5.4605    6.0412    0.2779 H   0  0  0  0  0  0  0  0  0  0  0  0
    7.2634    4.3897    0.4551 H   0  0  0  0  0  0  0  0  0  0  0  0
    6.2876    4.0827   -0.9854 H   0  0  0  0  0  0  0  0  0  0  0  0
  1  2  1  0  0  0  0
  1 10  1  0  0  0  0
  1 21  1  0  0  0  0
  1 22  1  0  0  0  0
  2  3  1  0  0  0  0
  2 23  1  0  0  0  0
  2 24  1  0  0  0  0
  3  4  2  0  0  0  0
  3 25  1  0  0  0  0
  4  5  1  0  0  0  0
  4 10  1  0  0  0  0
  5  6  1  0  0  0  0
  5 26  1  0  0  0  0
  5 27  1  0  0  0  0
  6  7  1  0  0  0  0
  6 12  1  0  0  0  0
  6 28  1  0  0  0  0
  7  8  1  0  0  0  0
  7 29  1  0  0  0  0
  7 30  1  0  0  0  0
  8  9  1  0  0  0  0
  8 31  1  0  0  0  0
  8 32  1  0  0  0  0
  9 13  1  0  0  0  0
  9 33  1  0  0  0  0
  9 34  1  0  0  0  0
 10 11  1  0  0  0  0
 10 35  1  0  0  0  0
 11 12  1  0  0  0  0
 11 16  1  0  0  0  0
 12 13  1  0  0  0  0
 12 36  1  0  0  0  0
 13 14  1  0  0  0  0
 13 37  1  0  0  0  0
 14 15  1  0  0  0  0
 14 38  1  0  0  0  0
 14 39  1  0  0  0  0
 15 16  1  0  0  0  0
 15 20  1  0  0  0  0
 16 17  1  0  0  0  0
 16 40  1  0  0  0  0
 17 18  1  0  0  0  0
 17 41  1  0  0  0  0
 17 42  1  0  0  0  0
 18 19  1  0  0  0  0
 18 43  1  0  0  0  0
 18 44  1  0  0  0  0
 19 20  1  0  0  0  0
 19 45  1  0  0  0  0
 19 46  1  0  0  0  0
 20 47  1  0  0  0  0
 20 48  1  0  0  0  0
M  END
$$$$
