okaramine_N
 OpenBabel04252411243D

 55 61  0  0  0  0  0  0  0  0999 V2000
   -1.9738    2.9043   -3.3175 C   0  0  0  0  0  0  0  0  0  0  0  0
   -1.9042    2.2653   -4.6874 C   0  0  0  0  0  0  0  0  0  0  0  0
   -2.5197    0.9889   -5.1686 C   0  0  0  0  0  0  0  0  0  0  0  0
   -3.6291    0.2785   -4.7648 C   0  0  0  0  0  0  0  0  0  0  0  0
   -3.7613   -1.0387   -5.2332 C   0  0  0  0  0  0  0  0  0  0  0  0
   -2.8193   -1.6107   -6.1155 C   0  0  0  0  0  0  0  0  0  0  0  0
   -1.7032   -0.8901   -6.5328 C   0  0  0  0  0  0  0  0  0  0  0  0
   -1.5545    0.3796   -6.0159 C   0  0  0  0  0  0  0  0  0  0  0  0
   -0.2827    1.1015   -6.0136 N   0  0  0  0  0  0  0  0  0  0  0  0
   -0.4856    1.6704   -4.6731 C   0  0  0  0  0  0  0  0  0  0  0  0
    0.3708    2.5947   -3.9448 N   0  0  0  0  0  0  0  0  0  0  0  0
    1.2688    1.7738   -3.0964 C   0  0  0  0  0  0  0  0  0  0  0  0
    0.7443    1.3321   -1.6874 C   0  0  0  0  0  0  0  0  0  0  0  0
   -0.4680    0.3600   -1.5232 C   0  0  0  0  0  0  0  0  0  0  0  0
   -0.5311    3.4277   -3.0900 C   0  0  0  0  0  0  0  0  0  0  0  0
   -0.1288    3.6764   -1.5896 C   0  0  0  0  0  0  0  0  0  0  0  0
    0.5408    2.5523   -0.8922 N   0  0  0  0  0  0  0  0  0  0  0  0
    1.1634    2.6796    0.3518 C   0  0  0  0  0  0  0  0  0  0  0  0
    1.5376    1.7379    1.2329 C   0  0  0  0  0  0  0  0  0  0  0  0
    1.1896    0.2528    1.2270 C   0  0  0  0  0  0  0  0  0  0  0  0
   -0.2771    0.0487    1.0264 C   0  0  0  0  0  0  0  0  0  0  0  0
   -1.0392    0.2660   -0.1131 C   0  0  0  0  0  0  0  0  0  0  0  0
   -2.3355    0.6818    0.3897 C   0  0  0  0  0  0  0  0  0  0  0  0
   -3.4767    1.3149   -0.1539 C   0  0  0  0  0  0  0  0  0  0  0  0
   -4.5038    1.7714    0.6884 C   0  0  0  0  0  0  0  0  0  0  0  0
   -4.4628    1.5261    2.0552 C   0  0  0  0  0  0  0  0  0  0  0  0
   -3.3939    0.8297    2.6166 C   0  0  0  0  0  0  0  0  0  0  0  0
   -2.3402    0.4601    1.7700 C   0  0  0  0  0  0  0  0  0  0  0  0
   -1.1279   -0.1001    2.0888 N   0  0  0  0  0  0  0  0  0  0  0  0
   -2.2741    2.1944   -2.5627 H   0  0  0  0  0  0  0  0  0  0  0  0
   -2.7068    3.7182   -3.2959 H   0  0  0  0  0  0  0  0  0  0  0  0
   -2.0162    3.0391   -5.4605 H   0  0  0  0  0  0  0  0  0  0  0  0
   -4.3299    0.6744   -4.0384 H   0  0  0  0  0  0  0  0  0  0  0  0
   -4.5827   -1.6564   -4.8743 H   0  0  0  0  0  0  0  0  0  0  0  0
   -2.9293   -2.6477   -6.4253 H   0  0  0  0  0  0  0  0  0  0  0  0
   -0.9237   -1.3445   -7.1340 H   0  0  0  0  0  0  0  0  0  0  0  0
   -0.3590    1.8641   -6.6865 H   0  0  0  0  0  0  0  0  0  0  0  0
   -0.5000    0.7720   -4.0357 H   0  0  0  0  0  0  0  0  0  0  0  0
    1.6411    0.9002   -3.6493 H   0  0  0  0  0  0  0  0  0  0  0  0
    2.1628    2.3923   -2.9307 H   0  0  0  0  0  0  0  0  0  0  0  0
    1.6132    0.7920   -1.2957 H   0  0  0  0  0  0  0  0  0  0  0  0
   -0.1366   -0.6446   -1.8195 H   0  0  0  0  0  0  0  0  0  0  0  0
   -1.2933    0.5813   -2.1899 H   0  0  0  0  0  0  0  0  0  0  0  0
   -0.5218    4.4245   -3.5554 H   0  0  0  0  0  0  0  0  0  0  0  0
   -1.0180    3.9686   -1.0178 H   0  0  0  0  0  0  0  0  0  0  0  0
    0.5622    4.5289   -1.5747 H   0  0  0  0  0  0  0  0  0  0  0  0
    1.3582    3.7250    0.5959 H   0  0  0  0  0  0  0  0  0  0  0  0
    2.0474    2.0693    2.1368 H   0  0  0  0  0  0  0  0  0  0  0  0
    1.4770   -0.1740    2.1962 H   0  0  0  0  0  0  0  0  0  0  0  0
    1.7787   -0.2956    0.4854 H   0  0  0  0  0  0  0  0  0  0  0  0
   -3.5514    1.5260   -1.2101 H   0  0  0  0  0  0  0  0  0  0  0  0
   -5.3312    2.3398    0.2701 H   0  0  0  0  0  0  0  0  0  0  0  0
   -5.2614    1.8910    2.6968 H   0  0  0  0  0  0  0  0  0  0  0  0
   -3.3525    0.6428    3.6844 H   0  0  0  0  0  0  0  0  0  0  0  0
   -0.8397   -0.2978    3.0348 H   0  0  0  0  0  0  0  0  0  0  0  0
  1  2  1  0  0  0  0
  1 15  1  0  0  0  0
  1 30  1  0  0  0  0
  1 31  1  0  0  0  0
  2  3  1  0  0  0  0
  2 10  1  0  0  0  0
  2 32  1  0  0  0  0
  3  4  2  0  0  0  0
  3  8  1  0  0  0  0
  4  5  1  0  0  0  0
  4 33  1  0  0  0  0
  5  6  2  0  0  0  0
  5 34  1  0  0  0  0
  6  7  1  0  0  0  0
  6 35  1  0  0  0  0
  7  8  2  0  0  0  0
  7 36  1  0  0  0  0
  8  9  1  0  0  0  0
  9 10  1  0  0  0  0
  9 37  1  0  0  0  0
 10 11  1  0  0  0  0
 10 38  1  0  0  0  0
 11 12  1  0  0  0  0
 11 15  1  0  0  0  0
 12 13  1  0  0  0  0
 12 39  1  0  0  0  0
 12 40  1  0  0  0  0
 13 14  1  0  0  0  0
 13 17  1  0  0  0  0
 13 41  1  0  0  0  0
 14 22  1  0  0  0  0
 14 42  1  0  0  0  0
 14 43  1  0  0  0  0
 15 16  1  0  0  0  0
 15 44  1  0  0  0  0
 16 17  1  0  0  0  0
 16 45  1  0  0  0  0
 16 46  1  0  0  0  0
 17 18  1  0  0  0  0
 18 19  2  0  0  0  0
 18 47  1  0  0  0  0
 19 20  1  0  0  0  0
 19 48  1  0  0  0  0
 20 21  1  0  0  0  0
 20 49  1  0  0  0  0
 20 50  1  0  0  0  0
 21 22  2  0  0  0  0
 21 29  1  0  0  0  0
 22 23  1  0  0  0  0
 23 24  2  0  0  0  0
 23 28  1  0  0  0  0
 24 25  1  0  0  0  0
 24 51  1  0  0  0  0
 25 26  2  0  0  0  0
 25 52  1  0  0  0  0
 26 27  1  0  0  0  0
 26 53  1  0  0  0  0
 27 28  2  0  0  0  0
 27 54  1  0  0  0  0
 28 29  1  0  0  0  0
 29 55  1  0  0  0  0
M  END
$$$$
