pedrolide
 OpenBabel04252411243D

 25 28  0  0  0  0  0  0  0  0999 V2000
   -1.8876    0.2399   -0.2280 C   0  0  0  0  0  0  0  0  0  0  0  0
   -1.3332    1.6397    0.0697 C   0  0  0  0  0  0  0  0  0  0  0  0
    0.0926    1.2106    0.4363 C   0  0  0  0  0  0  0  0  0  0  0  0
    0.4632    0.5145   -0.8878 C   0  0  0  0  0  0  0  0  0  0  0  0
   -0.6239   -0.5567   -0.7085 C   0  0  0  0  0  0  0  0  0  0  0  0
    0.0951   -1.2013    0.4890 C   0  0  0  0  0  0  0  0  0  0  0  0
    1.5267   -1.4258    0.0171 C   0  0  0  0  0  0  0  0  0  0  0  0
    1.8044   -0.2044   -0.8439 C   0  0  0  0  0  0  0  0  0  0  0  0
    0.0112    0.0017    1.4548 C   0  0  0  0  0  0  0  0  0  0  0  0
   -1.3877   -0.1042    2.0780 C   0  0  0  0  0  0  0  0  0  0  0  0
   -2.3627   -0.2950    1.0240 O   0  0  0  0  0  0  0  0  0  0  0  0
   -2.6981    0.2499   -0.9611 H   0  0  0  0  0  0  0  0  0  0  0  0
   -1.8491    2.1607    0.8815 H   0  0  0  0  0  0  0  0  0  0  0  0
   -1.3470    2.2824   -0.8180 H   0  0  0  0  0  0  0  0  0  0  0  0
    0.7522    2.0248    0.7413 H   0  0  0  0  0  0  0  0  0  0  0  0
    0.3500    1.1486   -1.7727 H   0  0  0  0  0  0  0  0  0  0  0  0
   -0.7779   -1.2167   -1.5650 H   0  0  0  0  0  0  0  0  0  0  0  0
   -0.3684   -2.1160    0.8704 H   0  0  0  0  0  0  0  0  0  0  0  0
    1.5933   -2.3372   -0.5877 H   0  0  0  0  0  0  0  0  0  0  0  0
    2.2339   -1.5154    0.8474 H   0  0  0  0  0  0  0  0  0  0  0  0
    2.1158   -0.5155   -1.8470 H   0  0  0  0  0  0  0  0  0  0  0  0
    2.5922    0.4279   -0.4223 H   0  0  0  0  0  0  0  0  0  0  0  0
    0.8083    0.0237    2.2029 H   0  0  0  0  0  0  0  0  0  0  0  0
   -1.6486    0.7897    2.6543 H   0  0  0  0  0  0  0  0  0  0  0  0
   -1.4603   -0.9651    2.7508 H   0  0  0  0  0  0  0  0  0  0  0  0
  1  2  1  0  0  0  0
  1  5  1  0  0  0  0
  1 11  1  0  0  0  0
  1 12  1  0  0  0  0
  2  3  1  0  0  0  0
  2 13  1  0  0  0  0
  2 14  1  0  0  0  0
  3  4  1  0  0  0  0
  3  9  1  0  0  0  0
  3 15  1  0  0  0  0
  4  5  1  0  0  0  0
  4  8  1  0  0  0  0
  4 16  1  0  0  0  0
  5  6  1  0  0  0  0
  5 17  1  0  0  0  0
  6  7  1  0  0  0  0
  6  9  1  0  0  0  0
  6 18  1  0  0  0  0
  7  8  1  0  0  0  0
  7 19  1  0  0  0  0
  7 20  1  0  0  0  0
  8 21  1  0  0  0  0
  8 22  1  0  0  0  0
  9 10  1  0  0  0  0
  9 23  1  0  0  0  0
 10 11  1  0  0  0  0
 10 24  1  0  0  0  0
 10 25  1  0  0  0  0
M  END
$$$$
