phorbol
 OpenBabel04252411243D

 35 38  0  0  0  0  0  0  0  0999 V2000
   -2.4776   -0.8970    1.6634 C   0  0  0  0  0  0  0  0  0  0  0  0
   -2.5453   -1.5844    0.3182 C   0  0  0  0  0  0  0  0  0  0  0  0
   -1.4401   -2.5107   -0.0855 C   0  0  0  0  0  0  0  0  0  0  0  0
   -0.3577   -1.8091   -0.9089 C   0  0  0  0  0  0  0  0  0  0  0  0
    0.1691   -0.5693   -0.1638 C   0  0  0  0  0  0  0  0  0  0  0  0
   -2.3088   -0.0955    0.4021 C   0  0  0  0  0  0  0  0  0  0  0  0
   -0.9933    0.4813   -0.0409 C   0  0  0  0  0  0  0  0  0  0  0  0
   -0.4874    1.6113    0.8343 C   0  0  0  0  0  0  0  0  0  0  0  0
    0.2444    2.5565    0.2137 C   0  0  0  0  0  0  0  0  0  0  0  0
    1.7452    2.4548    0.3513 C   0  0  0  0  0  0  0  0  0  0  0  0
    2.2344    0.9916    0.1978 C   0  0  0  0  0  0  0  0  0  0  0  0
    1.4404    0.0886   -0.8169 C   0  0  0  0  0  0  0  0  0  0  0  0
    2.5289   -0.8473   -1.2689 C   0  0  0  0  0  0  0  0  0  0  0  0
    3.7506   -0.3952   -0.9634 C   0  0  0  0  0  0  0  0  0  0  0  0
    3.7055    0.9051   -0.2334 C   0  0  0  0  0  0  0  0  0  0  0  0
   -1.6142   -1.0561    2.2979 H   0  0  0  0  0  0  0  0  0  0  0  0
   -3.4051   -0.7739    2.2131 H   0  0  0  0  0  0  0  0  0  0  0  0
   -3.5148   -1.9248   -0.0276 H   0  0  0  0  0  0  0  0  0  0  0  0
   -1.8521   -3.3427   -0.6679 H   0  0  0  0  0  0  0  0  0  0  0  0
   -0.9887   -2.9572    0.8100 H   0  0  0  0  0  0  0  0  0  0  0  0
   -0.7544   -1.5199   -1.8893 H   0  0  0  0  0  0  0  0  0  0  0  0
    0.4417   -2.5365   -1.0807 H   0  0  0  0  0  0  0  0  0  0  0  0
    0.4532   -0.9091    0.8436 H   0  0  0  0  0  0  0  0  0  0  0  0
   -3.1323    0.5569    0.1249 H   0  0  0  0  0  0  0  0  0  0  0  0
   -1.1810    0.8685   -1.0539 H   0  0  0  0  0  0  0  0  0  0  0  0
   -0.1783    1.2719    1.8245 H   0  0  0  0  0  0  0  0  0  0  0  0
   -0.0442    2.8519   -0.7973 H   0  0  0  0  0  0  0  0  0  0  0  0
    2.0722    2.8712    1.3114 H   0  0  0  0  0  0  0  0  0  0  0  0
    2.1954    3.0791   -0.4300 H   0  0  0  0  0  0  0  0  0  0  0  0
    2.1694    0.5213    1.1923 H   0  0  0  0  0  0  0  0  0  0  0  0
    1.1348    0.6684   -1.6989 H   0  0  0  0  0  0  0  0  0  0  0  0
    2.3593   -1.7316   -1.8679 H   0  0  0  0  0  0  0  0  0  0  0  0
    4.6713   -0.8788   -1.2606 H   0  0  0  0  0  0  0  0  0  0  0  0
    4.0048    1.7198   -0.9006 H   0  0  0  0  0  0  0  0  0  0  0  0
    4.3692    0.8965    0.6367 H   0  0  0  0  0  0  0  0  0  0  0  0
  1  2  1  0  0  0  0
  1  6  1  0  0  0  0
  1 16  1  0  0  0  0
  1 17  1  0  0  0  0
  2  3  1  0  0  0  0
  2  6  1  0  0  0  0
  2 18  1  0  0  0  0
  3  4  1  0  0  0  0
  3 19  1  0  0  0  0
  3 20  1  0  0  0  0
  4  5  1  0  0  0  0
  4 21  1  0  0  0  0
  4 22  1  0  0  0  0
  5  7  1  0  0  0  0
  5 12  1  0  0  0  0
  5 23  1  0  0  0  0
  6  7  1  0  0  0  0
  6 24  1  0  0  0  0
  7  8  1  0  0  0  0
  7 25  1  0  0  0  0
  8  9  2  0  0  0  0
  8 26  1  0  0  0  0
  9 10  1  0  0  0  0
  9 27  1  0  0  0  0
 10 11  1  0  0  0  0
 10 28  1  0  0  0  0
 10 29  1  0  0  0  0
 11 12  1  0  0  0  0
 11 15  1  0  0  0  0
 11 30  1  0  0  0  0
 12 13  1  0  0  0  0
 12 31  1  0  0  0  0
 13 14  2  0  0  0  0
 13 32  1  0  0  0  0
 14 15  1  0  0  0  0
 14 33  1  0  0  0  0
 15 34  1  0  0  0  0
 15 35  1  0  0  0  0
M  END
$$$$
