punctaporonin_U
 OpenBabel04252411233D

 26 29  0  0  0  0  0  0  0  0999 V2000
   -0.2305    2.1173   -0.3818 C   0  0  0  0  0  0  0  0  0  0  0  0
    1.2843    1.9721   -0.2338 C   0  0  0  0  0  0  0  0  0  0  0  0
    1.8728    0.6250   -0.6596 C   0  0  0  0  0  0  0  0  0  0  0  0
    1.1752   -0.6099   -0.1095 C   0  0  0  0  0  0  0  0  0  0  0  0
    0.7691   -0.4070    1.2647 O   0  0  0  0  0  0  0  0  0  0  0  0
   -0.6212   -0.7948    1.3054 C   0  0  0  0  0  0  0  0  0  0  0  0
   -0.6924   -1.9349    0.2972 C   0  0  0  0  0  0  0  0  0  0  0  0
   -0.1180   -1.0573   -0.8080 C   0  0  0  0  0  0  0  0  0  0  0  0
   -1.0318    1.7378    0.8606 C   0  0  0  0  0  0  0  0  0  0  0  0
   -1.4577    0.3068    0.6317 C   0  0  0  0  0  0  0  0  0  0  0  0
   -1.1661    0.0649   -0.8509 C   0  0  0  0  0  0  0  0  0  0  0  0
   -0.6963    1.2705   -1.4388 O   0  0  0  0  0  0  0  0  0  0  0  0
   -0.4510    3.1573   -0.6490 H   0  0  0  0  0  0  0  0  0  0  0  0
    1.5909    2.2195    0.7898 H   0  0  0  0  0  0  0  0  0  0  0  0
    1.7597    2.7325   -0.8683 H   0  0  0  0  0  0  0  0  0  0  0  0
    2.9141    0.6148   -0.3113 H   0  0  0  0  0  0  0  0  0  0  0  0
    1.9223    0.5604   -1.7535 H   0  0  0  0  0  0  0  0  0  0  0  0
    1.8893   -1.4438   -0.1127 H   0  0  0  0  0  0  0  0  0  0  0  0
   -0.9270   -1.0341    2.3257 H   0  0  0  0  0  0  0  0  0  0  0  0
   -1.7082   -2.2939    0.1048 H   0  0  0  0  0  0  0  0  0  0  0  0
   -0.0368   -2.7747    0.5504 H   0  0  0  0  0  0  0  0  0  0  0  0
    0.0511   -1.5363   -1.7744 H   0  0  0  0  0  0  0  0  0  0  0  0
   -1.9353    2.3606    0.8885 H   0  0  0  0  0  0  0  0  0  0  0  0
   -0.5044    1.9077    1.8040 H   0  0  0  0  0  0  0  0  0  0  0  0
   -2.5205    0.1542    0.8522 H   0  0  0  0  0  0  0  0  0  0  0  0
   -2.0633   -0.2634   -1.3881 H   0  0  0  0  0  0  0  0  0  0  0  0
  1  2  1  0  0  0  0
  1  9  1  0  0  0  0
  1 12  1  0  0  0  0
  1 13  1  0  0  0  0
  2  3  1  0  0  0  0
  2 14  1  0  0  0  0
  2 15  1  0  0  0  0
  3  4  1  0  0  0  0
  3 16  1  0  0  0  0
  3 17  1  0  0  0  0
  4  5  1  0  0  0  0
  4  8  1  0  0  0  0
  4 18  1  0  0  0  0
  5  6  1  0  0  0  0
  6  7  1  0  0  0  0
  6 10  1  0  0  0  0
  6 19  1  0  0  0  0
  7  8  1  0  0  0  0
  7 20  1  0  0  0  0
  7 21  1  0  0  0  0
  8 11  1  0  0  0  0
  8 22  1  0  0  0  0
  9 10  1  0  0  0  0
  9 23  1  0  0  0  0
  9 24  1  0  0  0  0
 10 11  1  0  0  0  0
 10 25  1  0  0  0  0
 11 12  1  0  0  0  0
 11 26  1  0  0  0  0
M  END
$$$$
