rugulin
 OpenBabel04252411233D

 28 32  0  0  0  0  0  0  0  0999 V2000
    1.5228    1.2031   -0.2050 C   0  0  0  0  0  0  0  0  0  0  0  0
    0.9172    2.5579    0.1635 C   0  0  0  0  0  0  0  0  0  0  0  0
   -0.5024    1.7892    0.3224 C   0  0  0  0  0  0  0  0  0  0  0  0
   -0.7147    0.5866   -1.0949 C   0  0  0  0  0  0  0  0  0  0  0  0
    0.5436   -0.3746   -1.4549 C   0  0  0  0  0  0  0  0  0  0  0  0
    0.5144   -1.1852   -0.1711 C   0  0  0  0  0  0  0  0  0  0  0  0
    0.6523   -0.0124    0.8014 C   0  0  0  0  0  0  0  0  0  0  0  0
   -0.8018    0.5970    1.2143 C   0  0  0  0  0  0  0  0  0  0  0  0
   -2.1662    0.1784    0.6207 C   0  0  0  0  0  0  0  0  0  0  0  0
   -1.7182   -0.5079   -0.6140 C   0  0  0  0  0  0  0  0  0  0  0  0
   -0.8938   -1.7496   -0.1859 C   0  0  0  0  0  0  0  0  0  0  0  0
    1.8252    0.4286   -1.4592 C   0  0  0  0  0  0  0  0  0  0  0  0
    1.0076    1.7240   -1.0666 H   0  0  0  0  0  0  0  0  0  0  0  0
    0.7517    3.2842    0.9949 H   0  0  0  0  0  0  0  0  0  0  0  0
    1.9237    2.6683    0.6313 H   0  0  0  0  0  0  0  0  0  0  0  0
   -0.0416    1.8777    1.3383 H   0  0  0  0  0  0  0  0  0  0  0  0
   -1.0725    1.1592   -1.9541 H   0  0  0  0  0  0  0  0  0  0  0  0
    0.4177   -0.9970   -2.3465 H   0  0  0  0  0  0  0  0  0  0  0  0
    1.3036   -1.9347   -0.0580 H   0  0  0  0  0  0  0  0  0  0  0  0
    1.2414   -0.2678    1.6850 H   0  0  0  0  0  0  0  0  0  0  0  0
   -0.9931    0.8746    2.2786 H   0  0  0  0  0  0  0  0  0  0  0  0
   -2.7685    1.0603    0.3344 H   0  0  0  0  0  0  0  0  0  0  0  0
   -2.7951   -0.4290    1.2740 H   0  0  0  0  0  0  0  0  0  0  0  0
   -2.4999   -0.7650   -1.3295 H   0  0  0  0  0  0  0  0  0  0  0  0
   -0.9862   -2.5643   -0.9155 H   0  0  0  0  0  0  0  0  0  0  0  0
   -1.1945   -2.1572    0.7891 H   0  0  0  0  0  0  0  0  0  0  0  0
    1.8971    1.0175   -2.4017 H   0  0  0  0  0  0  0  0  0  0  0  0
    2.7870   -0.0837   -1.3496 H   0  0  0  0  0  0  0  0  0  0  0  0
  1  2  1  0  0  0  0
  1  7  1  0  0  0  0
  1 12  1  0  0  0  0
  1 13  1  0  0  0  0
  2  3  1  0  0  0  0
  2 14  1  0  0  0  0
  2 15  1  0  0  0  0
  3  4  1  0  0  0  0
  3  8  1  0  0  0  0
  3 16  1  0  0  0  0
  4  5  1  0  0  0  0
  4 10  1  0  0  0  0
  4 17  1  0  0  0  0
  5  6  1  0  0  0  0
  5 12  1  0  0  0  0
  5 18  1  0  0  0  0
  6  7  1  0  0  0  0
  6 11  1  0  0  0  0
  6 19  1  0  0  0  0
  7  8  1  0  0  0  0
  7 20  1  0  0  0  0
  8  9  1  0  0  0  0
  8 21  1  0  0  0  0
  9 10  1  0  0  0  0
  9 22  1  0  0  0  0
  9 23  1  0  0  0  0
 10 11  1  0  0  0  0
 10 24  1  0  0  0  0
 11 25  1  0  0  0  0
 11 26  1  0  0  0  0
 12 27  1  0  0  0  0
 12 28  1  0  0  0  0
M  END
$$$$
