scabrolide_A
 OpenBabel04252411243D

 25 27  0  0  0  0  0  0  0  0999 V2000
   -0.3215    0.6019    0.3025 C   0  0  0  0  0  0  0  0  0  0  0  0
    1.0096    1.2975    0.0843 C   0  0  0  0  0  0  0  0  0  0  0  0
    2.1171    0.2927    0.3493 C   0  0  0  0  0  0  0  0  0  0  0  0
    1.9234   -1.0434    0.3584 C   0  0  0  0  0  0  0  0  0  0  0  0
   -1.6353    1.2488   -0.0802 C   0  0  0  0  0  0  0  0  0  0  0  0
   -2.6071    0.0449   -0.0406 C   0  0  0  0  0  0  0  0  0  0  0  0
   -1.7400   -1.2102   -0.2589 C   0  0  0  0  0  0  0  0  0  0  0  0
   -0.3634   -0.6753   -0.5404 C   0  0  0  0  0  0  0  0  0  0  0  0
    0.6057   -1.6963   -0.0074 C   0  0  0  0  0  0  0  0  0  0  0  0
   -0.2013   -2.3224    1.1322 C   0  0  0  0  0  0  0  0  0  0  0  0
   -1.6000   -1.9947    0.9371 O   0  0  0  0  0  0  0  0  0  0  0  0
   -0.3895    0.3702    1.3780 H   0  0  0  0  0  0  0  0  0  0  0  0
    1.1046    2.1406    0.7772 H   0  0  0  0  0  0  0  0  0  0  0  0
    1.1044    1.6886   -0.9344 H   0  0  0  0  0  0  0  0  0  0  0  0
    3.1028    0.6948    0.5713 H   0  0  0  0  0  0  0  0  0  0  0  0
    2.7555   -1.7035    0.5921 H   0  0  0  0  0  0  0  0  0  0  0  0
   -1.5914    1.6711   -1.0909 H   0  0  0  0  0  0  0  0  0  0  0  0
   -1.9379    2.0403    0.6114 H   0  0  0  0  0  0  0  0  0  0  0  0
   -3.3541    0.1545   -0.8338 H   0  0  0  0  0  0  0  0  0  0  0  0
   -3.1293    0.0006    0.9213 H   0  0  0  0  0  0  0  0  0  0  0  0
   -2.1280   -1.8578   -1.0511 H   0  0  0  0  0  0  0  0  0  0  0  0
   -0.2138   -0.4544   -1.6053 H   0  0  0  0  0  0  0  0  0  0  0  0
    0.7871   -2.4582   -0.7758 H   0  0  0  0  0  0  0  0  0  0  0  0
    0.0943   -1.9461    2.1174 H   0  0  0  0  0  0  0  0  0  0  0  0
   -0.1008   -3.4124    1.1432 H   0  0  0  0  0  0  0  0  0  0  0  0
  1  2  1  0  0  0  0
  1  5  1  0  0  0  0
  1  8  1  0  0  0  0
  1 12  1  0  0  0  0
  2  3  1  0  0  0  0
  2 13  1  0  0  0  0
  2 14  1  0  0  0  0
  3  4  2  0  0  0  0
  3 15  1  0  0  0  0
  4  9  1  0  0  0  0
  4 16  1  0  0  0  0
  5  6  1  0  0  0  0
  5 17  1  0  0  0  0
  5 18  1  0  0  0  0
  6  7  1  0  0  0  0
  6 19  1  0  0  0  0
  6 20  1  0  0  0  0
  7  8  1  0  0  0  0
  7 11  1  0  0  0  0
  7 21  1  0  0  0  0
  8  9  1  0  0  0  0
  8 22  1  0  0  0  0
  9 10  1  0  0  0  0
  9 23  1  0  0  0  0
 10 11  1  0  0  0  0
 10 24  1  0  0  0  0
 10 25  1  0  0  0  0
M  END
$$$$
