scholarisine_A
 OpenBabel04252411233D

 28 31  0  0  0  0  0  0  0  0999 V2000
    0.5664    1.4467    0.4017 C   0  0  0  0  0  0  0  0  0  0  0  0
   -0.9522    1.5436    0.4067 C   0  0  0  0  0  0  0  0  0  0  0  0
   -1.4854    0.4073   -0.4548 C   0  0  0  0  0  0  0  0  0  0  0  0
   -1.1242    0.6487   -1.8604 N   0  0  0  0  0  0  0  0  0  0  0  0
    0.0488    1.1339   -2.0892 C   0  0  0  0  0  0  0  0  0  0  0  0
    1.1165    1.3556   -1.0417 C   0  0  0  0  0  0  0  0  0  0  0  0
    2.1066    0.1782   -1.1407 C   0  0  0  0  0  0  0  0  0  0  0  0
    1.3932   -1.1663   -0.9156 C   0  0  0  0  0  0  0  0  0  0  0  0
    0.5218   -1.0549    0.3528 C   0  0  0  0  0  0  0  0  0  0  0  0
   -0.9880   -0.9666    0.0295 C   0  0  0  0  0  0  0  0  0  0  0  0
    1.0068    0.1750    1.1589 C   0  0  0  0  0  0  0  0  0  0  0  0
    2.5412    0.1710    1.2051 C   0  0  0  0  0  0  0  0  0  0  0  0
    3.0973    0.3382   -0.1091 O   0  0  0  0  0  0  0  0  0  0  0  0
    0.9848    2.3278    0.9045 H   0  0  0  0  0  0  0  0  0  0  0  0
   -1.2719    2.5138    0.0067 H   0  0  0  0  0  0  0  0  0  0  0  0
   -1.3417    1.4701    1.4289 H   0  0  0  0  0  0  0  0  0  0  0  0
   -2.5805    0.4172   -0.4027 H   0  0  0  0  0  0  0  0  0  0  0  0
    0.3342    1.3441   -3.1342 H   0  0  0  0  0  0  0  0  0  0  0  0
    1.6309    2.2938   -1.2813 H   0  0  0  0  0  0  0  0  0  0  0  0
    2.6235    0.1737   -2.1064 H   0  0  0  0  0  0  0  0  0  0  0  0
    2.1481   -1.9476   -0.7582 H   0  0  0  0  0  0  0  0  0  0  0  0
    0.8057   -1.4670   -1.7893 H   0  0  0  0  0  0  0  0  0  0  0  0
    0.6797   -1.9657    0.9453 H   0  0  0  0  0  0  0  0  0  0  0  0
   -1.5294   -1.2001    0.9565 H   0  0  0  0  0  0  0  0  0  0  0  0
   -1.2644   -1.7455   -0.6916 H   0  0  0  0  0  0  0  0  0  0  0  0
    0.5949    0.1545    2.1743 H   0  0  0  0  0  0  0  0  0  0  0  0
    2.9226   -0.7673    1.6224 H   0  0  0  0  0  0  0  0  0  0  0  0
    2.9176    0.9884    1.8290 H   0  0  0  0  0  0  0  0  0  0  0  0
  1  2  1  0  0  0  0
  1  6  1  0  0  0  0
  1 11  1  0  0  0  0
  1 14  1  0  0  0  0
  2  3  1  0  0  0  0
  2 15  1  0  0  0  0
  2 16  1  0  0  0  0
  3  4  1  0  0  0  0
  3 10  1  0  0  0  0
  3 17  1  0  0  0  0
  4  5  2  0  0  0  0
  5  6  1  0  0  0  0
  5 18  1  0  0  0  0
  6  7  1  0  0  0  0
  6 19  1  0  0  0  0
  7  8  1  0  0  0  0
  7 13  1  0  0  0  0
  7 20  1  0  0  0  0
  8  9  1  0  0  0  0
  8 21  1  0  0  0  0
  8 22  1  0  0  0  0
  9 10  1  0  0  0  0
  9 11  1  0  0  0  0
  9 23  1  0  0  0  0
 10 24  1  0  0  0  0
 10 25  1  0  0  0  0
 11 12  1  0  0  0  0
 11 26  1  0  0  0  0
 12 13  1  0  0  0  0
 12 27  1  0  0  0  0
 12 28  1  0  0  0  0
M  END
$$$$
