spirotryprostatin_B
 OpenBabel04252411243D

 41 45  0  0  0  0  0  0  0  0999 V2000
    2.4770   -0.0119   -0.4731 C   0  0  0  0  0  0  0  0  0  0  0  0
    1.5172    1.1048   -0.8874 C   0  0  0  0  0  0  0  0  0  0  0  0
    1.5880   -1.2126   -0.1991 C   0  0  0  0  0  0  0  0  0  0  0  0
    0.3932   -0.5551    0.3165 N   0  0  0  0  0  0  0  0  0  0  0  0
   -0.7480   -1.4674    0.4843 C   0  0  0  0  0  0  0  0  0  0  0  0
    0.1185    0.5434   -0.6552 C   0  0  0  0  0  0  0  0  0  0  0  0
   -0.6912    0.1108   -1.9700 C   0  0  0  0  0  0  0  0  0  0  0  0
   -1.8952   -0.7316   -1.6003 N   0  0  0  0  0  0  0  0  0  0  0  0
   -3.2716   -0.2771   -1.9976 C   0  0  0  0  0  0  0  0  0  0  0  0
   -1.9437   -0.8841   -0.2093 C   0  0  0  0  0  0  0  0  0  0  0  0
   -2.8604   -0.0746    0.3136 C   0  0  0  0  0  0  0  0  0  0  0  0
   -3.7276    0.5643   -0.7749 C   0  0  0  0  0  0  0  0  0  0  0  0
   -5.0782    0.7298   -0.1324 C   0  0  0  0  0  0  0  0  0  0  0  0
   -5.8448   -0.2445    0.5012 C   0  0  0  0  0  0  0  0  0  0  0  0
   -6.6674    0.1462    1.5670 C   0  0  0  0  0  0  0  0  0  0  0  0
   -6.7596    1.4921    1.9563 C   0  0  0  0  0  0  0  0  0  0  0  0
   -6.0481    2.4734    1.2730 C   0  0  0  0  0  0  0  0  0  0  0  0
   -5.2001    2.0777    0.2538 C   0  0  0  0  0  0  0  0  0  0  0  0
   -4.2261    2.9507   -0.3086 N   0  0  0  0  0  0  0  0  0  0  0  0
   -3.4831    2.0443   -1.1925 C   0  0  0  0  0  0  0  0  0  0  0  0
    3.0067    0.2772    0.4447 H   0  0  0  0  0  0  0  0  0  0  0  0
    3.2259   -0.2133   -1.2429 H   0  0  0  0  0  0  0  0  0  0  0  0
    1.6778    1.4371   -1.9150 H   0  0  0  0  0  0  0  0  0  0  0  0
    1.6857    1.9673   -0.2265 H   0  0  0  0  0  0  0  0  0  0  0  0
    2.0369   -1.9003    0.5235 H   0  0  0  0  0  0  0  0  0  0  0  0
    1.3933   -1.7584   -1.1311 H   0  0  0  0  0  0  0  0  0  0  0  0
   -0.9526   -1.6064    1.5512 H   0  0  0  0  0  0  0  0  0  0  0  0
   -0.5529   -2.4643    0.0674 H   0  0  0  0  0  0  0  0  0  0  0  0
   -0.4699    1.3178   -0.1427 H   0  0  0  0  0  0  0  0  0  0  0  0
   -0.0474   -0.4758   -2.6328 H   0  0  0  0  0  0  0  0  0  0  0  0
   -0.9984    1.0128   -2.5115 H   0  0  0  0  0  0  0  0  0  0  0  0
   -3.9083   -1.1629   -2.1250 H   0  0  0  0  0  0  0  0  0  0  0  0
   -3.2503    0.2496   -2.9587 H   0  0  0  0  0  0  0  0  0  0  0  0
   -2.9542    0.1424    1.3718 H   0  0  0  0  0  0  0  0  0  0  0  0
   -5.6897   -1.3007    0.3003 H   0  0  0  0  0  0  0  0  0  0  0  0
   -7.1835   -0.6092    2.1557 H   0  0  0  0  0  0  0  0  0  0  0  0
   -7.3464    1.7695    2.8284 H   0  0  0  0  0  0  0  0  0  0  0  0
   -6.0760    3.5101    1.5921 H   0  0  0  0  0  0  0  0  0  0  0  0
   -3.6313    3.2933    0.4439 H   0  0  0  0  0  0  0  0  0  0  0  0
   -2.4261    2.3197   -1.2196 H   0  0  0  0  0  0  0  0  0  0  0  0
   -3.8824    2.2121   -2.2063 H   0  0  0  0  0  0  0  0  0  0  0  0
  1  2  1  0  0  0  0
  1  3  1  0  0  0  0
  1 21  1  0  0  0  0
  1 22  1  0  0  0  0
  2  6  1  0  0  0  0
  2 23  1  0  0  0  0
  2 24  1  0  0  0  0
  3  4  1  0  0  0  0
  3 25  1  0  0  0  0
  3 26  1  0  0  0  0
  4  5  1  0  0  0  0
  4  6  1  0  0  0  0
  5 10  1  0  0  0  0
  5 27  1  0  0  0  0
  5 28  1  0  0  0  0
  6  7  1  0  0  0  0
  6 29  1  0  0  0  0
  7  8  1  0  0  0  0
  7 30  1  0  0  0  0
  7 31  1  0  0  0  0
  8  9  1  0  0  0  0
  8 10  1  0  0  0  0
  9 12  1  0  0  0  0
  9 32  1  0  0  0  0
  9 33  1  0  0  0  0
 10 11  2  0  0  0  0
 11 12  1  0  0  0  0
 11 34  1  0  0  0  0
 12 13  1  0  0  0  0
 12 20  1  0  0  0  0
 13 14  2  0  0  0  0
 13 18  1  0  0  0  0
 14 15  1  0  0  0  0
 14 35  1  0  0  0  0
 15 16  2  0  0  0  0
 15 36  1  0  0  0  0
 16 17  1  0  0  0  0
 16 37  1  0  0  0  0
 17 18  2  0  0  0  0
 17 38  1  0  0  0  0
 18 19  1  0  0  0  0
 19 20  1  0  0  0  0
 19 39  1  0  0  0  0
 20 40  1  0  0  0  0
 20 41  1  0  0  0  0
M  END
$$$$
