strepantibin_A
 OpenBabel04252411233D

 33 35  0  0  0  0  0  0  0  0999 V2000
    1.0659    0.1050    1.2243 O   0  0  0  0  0  0  0  0  0  0  0  0
    2.1268    0.1265    0.5951 C   0  0  0  0  0  0  0  0  0  0  0  0
    2.8709    1.4455    0.4103 C   0  0  0  0  0  0  0  0  0  0  0  0
    4.2477    1.3220   -0.1886 C   0  0  0  0  0  0  0  0  0  0  0  0
    5.1027    2.5352   -0.2274 C   0  0  0  0  0  0  0  0  0  0  0  0
    4.5485    3.8055   -0.4489 C   0  0  0  0  0  0  0  0  0  0  0  0
    5.3517    4.9507   -0.4659 C   0  0  0  0  0  0  0  0  0  0  0  0
    6.7237    4.8459   -0.2578 C   0  0  0  0  0  0  0  0  0  0  0  0
    7.2925    3.5974   -0.0270 C   0  0  0  0  0  0  0  0  0  0  0  0
    6.4881    2.4536   -0.0068 C   0  0  0  0  0  0  0  0  0  0  0  0
    4.6774    0.1506   -0.6859 C   0  0  0  0  0  0  0  0  0  0  0  0
    3.8688   -1.0417   -0.6438 C   0  0  0  0  0  0  0  0  0  0  0  0
    2.6731   -1.1231   -0.0341 C   0  0  0  0  0  0  0  0  0  0  0  0
    1.9239   -2.3988   -0.0260 C   0  0  0  0  0  0  0  0  0  0  0  0
    2.5507   -3.6048    0.3295 C   0  0  0  0  0  0  0  0  0  0  0  0
    1.8419   -4.8094    0.3243 C   0  0  0  0  0  0  0  0  0  0  0  0
    0.4948   -4.8243   -0.0284 C   0  0  0  0  0  0  0  0  0  0  0  0
   -0.1445   -3.6360   -0.3730 C   0  0  0  0  0  0  0  0  0  0  0  0
    0.5655   -2.4321   -0.3724 C   0  0  0  0  0  0  0  0  0  0  0  0
    2.9467    1.9084    1.4016 H   0  0  0  0  0  0  0  0  0  0  0  0
    2.2370    2.0698   -0.2299 H   0  0  0  0  0  0  0  0  0  0  0  0
    3.4834    3.9293   -0.6261 H   0  0  0  0  0  0  0  0  0  0  0  0
    4.9022    5.9246   -0.6429 H   0  0  0  0  0  0  0  0  0  0  0  0
    7.3472    5.7359   -0.2714 H   0  0  0  0  0  0  0  0  0  0  0  0
    8.3624    3.5109    0.1445 H   0  0  0  0  0  0  0  0  0  0  0  0
    6.9626    1.4975    0.2017 H   0  0  0  0  0  0  0  0  0  0  0  0
    5.6541    0.0479   -1.1529 H   0  0  0  0  0  0  0  0  0  0  0  0
    4.2965   -1.9097   -1.1419 H   0  0  0  0  0  0  0  0  0  0  0  0
    3.5970   -3.6184    0.6261 H   0  0  0  0  0  0  0  0  0  0  0  0
    2.3405   -5.7341    0.6027 H   0  0  0  0  0  0  0  0  0  0  0  0
   -0.0592   -5.7594   -0.0265 H   0  0  0  0  0  0  0  0  0  0  0  0
   -1.1990   -3.6413   -0.6367 H   0  0  0  0  0  0  0  0  0  0  0  0
    0.0406   -1.5163   -0.6375 H   0  0  0  0  0  0  0  0  0  0  0  0
  1  2  2  0  0  0  0
  2  3  1  0  0  0  0
  2 13  1  0  0  0  0
  3  4  1  0  0  0  0
  3 20  1  0  0  0  0
  3 21  1  0  0  0  0
  4  5  1  0  0  0  0
  4 11  2  0  0  0  0
  5  6  2  0  0  0  0
  5 10  1  0  0  0  0
  6  7  1  0  0  0  0
  6 22  1  0  0  0  0
  7  8  2  0  0  0  0
  7 23  1  0  0  0  0
  8  9  1  0  0  0  0
  8 24  1  0  0  0  0
  9 10  2  0  0  0  0
  9 25  1  0  0  0  0
 10 26  1  0  0  0  0
 11 12  1  0  0  0  0
 11 27  1  0  0  0  0
 12 13  2  0  0  0  0
 12 28  1  0  0  0  0
 13 14  1  0  0  0  0
 14 15  2  0  0  0  0
 14 19  1  0  0  0  0
 15 16  1  0  0  0  0
 15 29  1  0  0  0  0
 16 17  2  0  0  0  0
 16 30  1  0  0  0  0
 17 18  1  0  0  0  0
 17 31  1  0  0  0  0
 18 19  2  0  0  0  0
 18 32  1  0  0  0  0
 19 33  1  0  0  0  0
M  END
$$$$
