tabernabovine_B
 OpenBabel04252411233D

 25 27  0  0  0  0  0  0  0  0999 V2000
   -1.3926   -0.9527   -0.1776 C   0  0  0  0  0  0  0  0  0  0  0  0
   -1.5099   -1.4947   -1.6127 C   0  0  0  0  0  0  0  0  0  0  0  0
   -0.1559   -1.6685   -2.2981 C   0  0  0  0  0  0  0  0  0  0  0  0
    0.9079   -0.8401   -1.5850 C   0  0  0  0  0  0  0  0  0  0  0  0
    0.5756    0.6589   -1.6863 C   0  0  0  0  0  0  0  0  0  0  0  0
   -0.2913   -1.5434    0.5518 N   0  0  0  0  0  0  0  0  0  0  0  0
    0.9960   -1.2861   -0.0998 C   0  0  0  0  0  0  0  0  0  0  0  0
    1.7244   -0.3059    0.6346 O   0  0  0  0  0  0  0  0  0  0  0  0
    1.0076    0.9292    0.7536 C   0  0  0  0  0  0  0  0  0  0  0  0
   -0.0343    1.1460   -0.3737 C   0  0  0  0  0  0  0  0  0  0  0  0
   -1.3312    0.4992   -0.0756 N   0  0  0  0  0  0  0  0  0  0  0  0
   -2.3211   -1.2430    0.3300 H   0  0  0  0  0  0  0  0  0  0  0  0
   -2.1467   -0.8297   -2.2101 H   0  0  0  0  0  0  0  0  0  0  0  0
   -2.0202   -2.4665   -1.6008 H   0  0  0  0  0  0  0  0  0  0  0  0
   -0.2297   -1.3973   -3.3576 H   0  0  0  0  0  0  0  0  0  0  0  0
    0.1320   -2.7272   -2.2691 H   0  0  0  0  0  0  0  0  0  0  0  0
    1.8760   -1.0077   -2.0735 H   0  0  0  0  0  0  0  0  0  0  0  0
   -0.0807    0.8791   -2.5369 H   0  0  0  0  0  0  0  0  0  0  0  0
    1.5045    1.2152   -1.8699 H   0  0  0  0  0  0  0  0  0  0  0  0
   -0.4286   -2.5511    0.5766 H   0  0  0  0  0  0  0  0  0  0  0  0
    1.5866   -2.2086   -0.0516 H   0  0  0  0  0  0  0  0  0  0  0  0
    1.7557    1.7294    0.7200 H   0  0  0  0  0  0  0  0  0  0  0  0
    0.5457    0.9768    1.7468 H   0  0  0  0  0  0  0  0  0  0  0  0
   -0.2361    2.2213   -0.4419 H   0  0  0  0  0  0  0  0  0  0  0  0
   -1.5685    0.7256    0.8904 H   0  0  0  0  0  0  0  0  0  0  0  0
  1  2  1  0  0  0  0
  1  6  1  0  0  0  0
  1 11  1  0  0  0  0
  1 12  1  0  0  0  0
  2  3  1  0  0  0  0
  2 13  1  0  0  0  0
  2 14  1  0  0  0  0
  3  4  1  0  0  0  0
  3 15  1  0  0  0  0
  3 16  1  0  0  0  0
  4  5  1  0  0  0  0
  4  7  1  0  0  0  0
  4 17  1  0  0  0  0
  5 10  1  0  0  0  0
  5 18  1  0  0  0  0
  5 19  1  0  0  0  0
  6  7  1  0  0  0  0
  6 20  1  0  0  0  0
  7  8  1  0  0  0  0
  7 21  1  0  0  0  0
  8  9  1  0  0  0  0
  9 10  1  0  0  0  0
  9 22  1  0  0  0  0
  9 23  1  0  0  0  0
 10 11  1  0  0  0  0
 10 24  1  0  0  0  0
 11 25  1  0  0  0  0
M  END
$$$$
