trichodimerol
 OpenBabel04252411233D

 26 30  0  0  0  0  0  0  0  0999 V2000
   -1.6955    1.1713   -0.9799 C   0  0  0  0  0  0  0  0  0  0  0  0
   -0.3846    1.4423   -1.0606 C   0  0  0  0  0  0  0  0  0  0  0  0
    0.5492    0.8768   -0.0249 C   0  0  0  0  0  0  0  0  0  0  0  0
   -0.0272    1.0206    1.4013 C   0  0  0  0  0  0  0  0  0  0  0  0
    0.6972   -0.0143    2.1110 O   0  0  0  0  0  0  0  0  0  0  0  0
    0.4175   -1.1681    1.2804 C   0  0  0  0  0  0  0  0  0  0  0  0
   -1.1197   -1.4857    1.3753 C   0  0  0  0  0  0  0  0  0  0  0  0
   -1.7322   -0.5161    2.2609 O   0  0  0  0  0  0  0  0  0  0  0  0
   -1.5645    0.7030    1.4961 C   0  0  0  0  0  0  0  0  0  0  0  0
   -2.2010    0.3084    0.1447 C   0  0  0  0  0  0  0  0  0  0  0  0
   -1.8885   -1.2297    0.0600 C   0  0  0  0  0  0  0  0  0  0  0  0
   -1.1115   -1.7037   -1.1384 C   0  0  0  0  0  0  0  0  0  0  0  0
    0.1994   -1.4327   -1.2194 C   0  0  0  0  0  0  0  0  0  0  0  0
    0.8616   -0.6613   -0.1099 C   0  0  0  0  0  0  0  0  0  0  0  0
   -2.3906    1.5214   -1.7368 H   0  0  0  0  0  0  0  0  0  0  0  0
    0.0212    2.0201   -1.8853 H   0  0  0  0  0  0  0  0  0  0  0  0
    1.5026    1.4191   -0.0710 H   0  0  0  0  0  0  0  0  0  0  0  0
    0.1984    1.9971    1.8417 H   0  0  0  0  0  0  0  0  0  0  0  0
    1.0148   -2.0205    1.6198 H   0  0  0  0  0  0  0  0  0  0  0  0
   -1.2873   -2.4961    1.7621 H   0  0  0  0  0  0  0  0  0  0  0  0
   -2.1038    1.5215    1.9836 H   0  0  0  0  0  0  0  0  0  0  0  0
   -3.2893    0.4290    0.2245 H   0  0  0  0  0  0  0  0  0  0  0  0
   -2.8422   -1.7719    0.1033 H   0  0  0  0  0  0  0  0  0  0  0  0
   -1.6316   -2.2149   -1.9427 H   0  0  0  0  0  0  0  0  0  0  0  0
    0.7801   -1.7162   -2.0918 H   0  0  0  0  0  0  0  0  0  0  0  0
    1.9497   -0.7818   -0.1927 H   0  0  0  0  0  0  0  0  0  0  0  0
  1  2  2  0  0  0  0
  1 10  1  0  0  0  0
  1 15  1  0  0  0  0
  2  3  1  0  0  0  0
  2 16  1  0  0  0  0
  3  4  1  0  0  0  0
  3 14  1  0  0  0  0
  3 17  1  0  0  0  0
  4  5  1  0  0  0  0
  4  9  1  0  0  0  0
  4 18  1  0  0  0  0
  5  6  1  0  0  0  0
  6  7  1  0  0  0  0
  6 14  1  0  0  0  0
  6 19  1  0  0  0  0
  7  8  1  0  0  0  0
  7 11  1  0  0  0  0
  7 20  1  0  0  0  0
  8  9  1  0  0  0  0
  9 10  1  0  0  0  0
  9 21  1  0  0  0  0
 10 11  1  0  0  0  0
 10 22  1  0  0  0  0
 11 12  1  0  0  0  0
 11 23  1  0  0  0  0
 12 13  2  0  0  0  0
 12 24  1  0  0  0  0
 13 14  1  0  0  0  0
 13 25  1  0  0  0  0
 14 26  1  0  0  0  0
M  END
$$$$
