tsukushinamine_A
 OpenBabel04252411233D

 24 26  0  0  0  0  0  0  0  0999 V2000
   -0.1080   -0.5540   -1.4119 C   0  0  0  0  0  0  0  0  0  0  0  0
    0.5212    0.8490   -1.4410 C   0  0  0  0  0  0  0  0  0  0  0  0
   -1.6211   -0.3679   -1.3055 C   0  0  0  0  0  0  0  0  0  0  0  0
   -1.7974   -0.0132    0.1184 N   0  0  0  0  0  0  0  0  0  0  0  0
   -1.0430   -1.0906    0.7925 C   0  0  0  0  0  0  0  0  0  0  0  0
    0.2177   -1.2930   -0.0803 C   0  0  0  0  0  0  0  0  0  0  0  0
    1.4335   -0.7864    0.5745 N   0  0  0  0  0  0  0  0  0  0  0  0
    1.3006    0.6448    0.9050 C   0  0  0  0  0  0  0  0  0  0  0  0
    0.3492    1.4203   -0.0317 C   0  0  0  0  0  0  0  0  0  0  0  0
   -1.1445    1.2970    0.3882 C   0  0  0  0  0  0  0  0  0  0  0  0
    0.1831   -1.1276   -2.2970 H   0  0  0  0  0  0  0  0  0  0  0  0
    0.0309    1.4860   -2.1867 H   0  0  0  0  0  0  0  0  0  0  0  0
    1.5817    0.7956   -1.7154 H   0  0  0  0  0  0  0  0  0  0  0  0
   -2.1520   -1.3018   -1.5304 H   0  0  0  0  0  0  0  0  0  0  0  0
   -2.0203    0.4003   -1.9774 H   0  0  0  0  0  0  0  0  0  0  0  0
   -1.6457   -2.0084    0.7829 H   0  0  0  0  0  0  0  0  0  0  0  0
   -0.8386   -0.8757    1.8478 H   0  0  0  0  0  0  0  0  0  0  0  0
    0.3446   -2.3643   -0.2758 H   0  0  0  0  0  0  0  0  0  0  0  0
    2.2160   -0.9029   -0.0700 H   0  0  0  0  0  0  0  0  0  0  0  0
    2.3017    1.0899    0.8475 H   0  0  0  0  0  0  0  0  0  0  0  0
    0.9836    0.7537    1.9486 H   0  0  0  0  0  0  0  0  0  0  0  0
    0.6321    2.4795   -0.0175 H   0  0  0  0  0  0  0  0  0  0  0  0
   -1.7180    2.0661   -0.1461 H   0  0  0  0  0  0  0  0  0  0  0  0
   -1.2525    1.5390    1.4530 H   0  0  0  0  0  0  0  0  0  0  0  0
  1  2  1  0  0  0  0
  1  3  1  0  0  0  0
  1  6  1  0  0  0  0
  1 11  1  0  0  0  0
  2  9  1  0  0  0  0
  2 12  1  0  0  0  0
  2 13  1  0  0  0  0
  3  4  1  0  0  0  0
  3 14  1  0  0  0  0
  3 15  1  0  0  0  0
  4  5  1  0  0  0  0
  4 10  1  0  0  0  0
  5  6  1  0  0  0  0
  5 16  1  0  0  0  0
  5 17  1  0  0  0  0
  6  7  1  0  0  0  0
  6 18  1  0  0  0  0
  7  8  1  0  0  0  0
  7 19  1  0  0  0  0
  8  9  1  0  0  0  0
  8 20  1  0  0  0  0
  8 21  1  0  0  0  0
  9 10  1  0  0  0  0
  9 22  1  0  0  0  0
 10 23  1  0  0  0  0
 10 24  1  0  0  0  0
M  END
$$$$
