varioxepine_A
 OpenBabel04252411233D

 36 40  0  0  0  0  0  0  0  0999 V2000
   -1.0876   -0.4601    1.0590 C   0  0  0  0  0  0  0  0  0  0  0  0
    0.0918    0.2298    1.4639 O   0  0  0  0  0  0  0  0  0  0  0  0
    1.1045   -0.1293    0.4853 C   0  0  0  0  0  0  0  0  0  0  0  0
    0.3837   -0.6551   -0.6561 O   0  0  0  0  0  0  0  0  0  0  0  0
   -0.6119   -1.4359    0.0082 C   0  0  0  0  0  0  0  0  0  0  0  0
    0.0483   -2.6784    0.6240 C   0  0  0  0  0  0  0  0  0  0  0  0
    1.4691   -2.5983    0.7453 O   0  0  0  0  0  0  0  0  0  0  0  0
    2.0009   -1.2857    1.0981 C   0  0  0  0  0  0  0  0  0  0  0  0
    2.1409   -1.2764    2.6434 C   0  0  0  0  0  0  0  0  0  0  0  0
    2.9153   -2.1263    3.3531 C   0  0  0  0  0  0  0  0  0  0  0  0
    3.7569   -3.0767    2.6429 C   0  0  0  0  0  0  0  0  0  0  0  0
    4.6112   -2.5001    1.7832 C   0  0  0  0  0  0  0  0  0  0  0  0
    4.1721   -2.3092    0.4556 O   0  0  0  0  0  0  0  0  0  0  0  0
    3.4049   -1.1566    0.4419 C   0  0  0  0  0  0  0  0  0  0  0  0
    3.9458   -0.0989   -0.0699 N   0  0  0  0  0  0  0  0  0  0  0  0
    3.1845    1.0284   -0.1147 C   0  0  0  0  0  0  0  0  0  0  0  0
    3.7972    2.1779   -0.4796 C   0  0  0  0  0  0  0  0  0  0  0  0
    3.1644    3.3997   -0.6326 N   0  0  0  0  0  0  0  0  0  0  0  0
    1.7094    3.4886   -0.4985 C   0  0  0  0  0  0  0  0  0  0  0  0
    1.0392    2.0966   -0.6042 C   0  0  0  0  0  0  0  0  0  0  0  0
    1.8145    1.0641    0.1186 N   0  0  0  0  0  0  0  0  0  0  0  0
   -1.7671    0.2843    0.6310 H   0  0  0  0  0  0  0  0  0  0  0  0
   -1.5740   -0.9247    1.9213 H   0  0  0  0  0  0  0  0  0  0  0  0
   -1.4254   -1.7164   -0.6671 H   0  0  0  0  0  0  0  0  0  0  0  0
   -0.1467   -3.5372   -0.0277 H   0  0  0  0  0  0  0  0  0  0  0  0
   -0.3840   -2.9314    1.5985 H   0  0  0  0  0  0  0  0  0  0  0  0
    1.5528   -0.5436    3.1891 H   0  0  0  0  0  0  0  0  0  0  0  0
    2.9585   -2.1065    4.4371 H   0  0  0  0  0  0  0  0  0  0  0  0
    3.1733   -3.9297    2.2867 H   0  0  0  0  0  0  0  0  0  0  0  0
    5.1964   -1.6160    2.0439 H   0  0  0  0  0  0  0  0  0  0  0  0
    4.8611    2.2000   -0.7008 H   0  0  0  0  0  0  0  0  0  0  0  0
    3.6268    4.0659   -1.2417 H   0  0  0  0  0  0  0  0  0  0  0  0
    1.3053    4.1529   -1.2704 H   0  0  0  0  0  0  0  0  0  0  0  0
    1.4777    3.9316    0.4761 H   0  0  0  0  0  0  0  0  0  0  0  0
    0.9844    1.8098   -1.6637 H   0  0  0  0  0  0  0  0  0  0  0  0
    0.0103    2.1661   -0.2350 H   0  0  0  0  0  0  0  0  0  0  0  0
  1  2  1  0  0  0  0
  1  5  1  0  0  0  0
  1 22  1  0  0  0  0
  1 23  1  0  0  0  0
  2  3  1  0  0  0  0
  3  4  1  0  0  0  0
  3  8  1  0  0  0  0
  3 21  1  0  0  0  0
  4  5  1  0  0  0  0
  5  6  1  0  0  0  0
  5 24  1  0  0  0  0
  6  7  1  0  0  0  0
  6 25  1  0  0  0  0
  6 26  1  0  0  0  0
  7  8  1  0  0  0  0
  8  9  1  0  0  0  0
  8 14  1  0  0  0  0
  9 10  2  0  0  0  0
  9 27  1  0  0  0  0
 10 11  1  0  0  0  0
 10 28  1  0  0  0  0
 11 12  2  0  0  0  0
 11 29  1  0  0  0  0
 12 13  1  0  0  0  0
 12 30  1  0  0  0  0
 13 14  1  0  0  0  0
 14 15  2  0  0  0  0
 15 16  1  0  0  0  0
 16 17  2  0  0  0  0
 16 21  1  0  0  0  0
 17 18  1  0  0  0  0
 17 31  1  0  0  0  0
 18 19  1  0  0  0  0
 18 32  1  0  0  0  0
 19 20  1  0  0  0  0
 19 33  1  0  0  0  0
 19 34  1  0  0  0  0
 20 21  1  0  0  0  0
 20 35  1  0  0  0  0
 20 36  1  0  0  0  0
M  END
$$$$
