vinigrol
 OpenBabel04252411243D

 36 38  0  0  0  0  0  0  0  0999 V2000
    1.8183    2.0139   -1.0072 C   0  0  0  0  0  0  0  0  0  0  0  0
    2.2838    1.2598    0.2789 C   0  0  0  0  0  0  0  0  0  0  0  0
    0.4824    1.5149   -1.6726 C   0  0  0  0  0  0  0  0  0  0  0  0
   -0.6517    1.0466   -0.7020 C   0  0  0  0  0  0  0  0  0  0  0  0
   -1.1534   -0.4629   -0.6901 C   0  0  0  0  0  0  0  0  0  0  0  0
   -2.5169   -0.4883   -0.0645 C   0  0  0  0  0  0  0  0  0  0  0  0
   -2.5792    0.1125    1.1456 C   0  0  0  0  0  0  0  0  0  0  0  0
   -1.3542    0.8258    1.7486 C   0  0  0  0  0  0  0  0  0  0  0  0
   -0.1713    1.1810    0.7653 C   0  0  0  0  0  0  0  0  0  0  0  0
    1.1549    0.3240    0.6731 C   0  0  0  0  0  0  0  0  0  0  0  0
    1.3544   -0.9856    1.4360 C   0  0  0  0  0  0  0  0  0  0  0  0
    1.4589   -2.2062    0.4351 C   0  0  0  0  0  0  0  0  0  0  0  0
    0.2296   -2.6410   -0.4524 C   0  0  0  0  0  0  0  0  0  0  0  0
   -0.4690   -1.6193   -1.4438 C   0  0  0  0  0  0  0  0  0  0  0  0
    2.6181    1.9647   -1.7568 H   0  0  0  0  0  0  0  0  0  0  0  0
    1.7060    3.0768   -0.7604 H   0  0  0  0  0  0  0  0  0  0  0  0
    2.5111    1.9721    1.0797 H   0  0  0  0  0  0  0  0  0  0  0  0
    3.2034    0.7008    0.0704 H   0  0  0  0  0  0  0  0  0  0  0  0
    0.7115    0.7420   -2.4106 H   0  0  0  0  0  0  0  0  0  0  0  0
    0.0925    2.3536   -2.2655 H   0  0  0  0  0  0  0  0  0  0  0  0
   -1.5087    1.7130   -0.8753 H   0  0  0  0  0  0  0  0  0  0  0  0
   -0.7402   -0.8480    0.2381 H   0  0  0  0  0  0  0  0  0  0  0  0
   -3.3552   -0.9935   -0.5261 H   0  0  0  0  0  0  0  0  0  0  0  0
   -3.5033    0.1145    1.7154 H   0  0  0  0  0  0  0  0  0  0  0  0
   -0.9917    0.2741    2.6208 H   0  0  0  0  0  0  0  0  0  0  0  0
   -1.7358    1.7801    2.1371 H   0  0  0  0  0  0  0  0  0  0  0  0
    0.0912    2.2247    0.9856 H   0  0  0  0  0  0  0  0  0  0  0  0
    1.1482   -0.1549   -0.3044 H   0  0  0  0  0  0  0  0  0  0  0  0
    0.5441   -1.1860    2.1411 H   0  0  0  0  0  0  0  0  0  0  0  0
    2.2816   -0.9317    2.0178 H   0  0  0  0  0  0  0  0  0  0  0  0
    1.7368   -3.0818    1.0365 H   0  0  0  0  0  0  0  0  0  0  0  0
    2.3095   -2.0273   -0.2365 H   0  0  0  0  0  0  0  0  0  0  0  0
   -0.5392   -3.0481    0.2180 H   0  0  0  0  0  0  0  0  0  0  0  0
    0.5684   -3.4879   -1.0637 H   0  0  0  0  0  0  0  0  0  0  0  0
   -1.2241   -2.1659   -2.0209 H   0  0  0  0  0  0  0  0  0  0  0  0
    0.2793   -1.2676   -2.1571 H   0  0  0  0  0  0  0  0  0  0  0  0
  1  2  1  0  0  0  0
  1  3  1  0  0  0  0
  1 15  1  0  0  0  0
  1 16  1  0  0  0  0
  2 10  1  0  0  0  0
  2 17  1  0  0  0  0
  2 18  1  0  0  0  0
  3  4  1  0  0  0  0
  3 19  1  0  0  0  0
  3 20  1  0  0  0  0
  4  5  1  0  0  0  0
  4  9  1  0  0  0  0
  4 21  1  0  0  0  0
  5  6  1  0  0  0  0
  5 14  1  0  0  0  0
  5 22  1  0  0  0  0
  6  7  2  0  0  0  0
  6 23  1  0  0  0  0
  7  8  1  0  0  0  0
  7 24  1  0  0  0  0
  8  9  1  0  0  0  0
  8 25  1  0  0  0  0
  8 26  1  0  0  0  0
  9 10  1  0  0  0  0
  9 27  1  0  0  0  0
 10 11  1  0  0  0  0
 10 28  1  0  0  0  0
 11 12  1  0  0  0  0
 11 29  1  0  0  0  0
 11 30  1  0  0  0  0
 12 13  1  0  0  0  0
 12 31  1  0  0  0  0
 12 32  1  0  0  0  0
 13 14  1  0  0  0  0
 13 33  1  0  0  0  0
 13 34  1  0  0  0  0
 14 35  1  0  0  0  0
 14 36  1  0  0  0  0
M  END
$$$$
