xiamycin_A
 OpenBabel04252411243D

 42 46  0  0  0  0  0  0  0  0999 V2000
    1.1009    0.3267    0.1062 C   0  0  0  0  0  0  0  0  0  0  0  0
    0.5728   -0.8893    0.8538 C   0  0  0  0  0  0  0  0  0  0  0  0
    0.8462   -2.1795    0.0893 C   0  0  0  0  0  0  0  0  0  0  0  0
    2.5891    0.1844   -0.1921 C   0  0  0  0  0  0  0  0  0  0  0  0
    2.9392   -1.1098   -0.9410 C   0  0  0  0  0  0  0  0  0  0  0  0
    2.5061   -1.0560   -2.4116 C   0  0  0  0  0  0  0  0  0  0  0  0
    3.0438   -2.2698   -3.1648 C   0  0  0  0  0  0  0  0  0  0  0  0
    2.8195   -3.5787   -2.4456 C   0  0  0  0  0  0  0  0  0  0  0  0
    2.9634   -4.7694   -3.1833 C   0  0  0  0  0  0  0  0  0  0  0  0
    2.3414   -2.3565   -0.2486 C   0  0  0  0  0  0  0  0  0  0  0  0
    2.5356   -3.6240   -1.0692 C   0  0  0  0  0  0  0  0  0  0  0  0
    2.3829   -4.8719   -0.4290 C   0  0  0  0  0  0  0  0  0  0  0  0
    2.4991   -6.0701   -1.1616 C   0  0  0  0  0  0  0  0  0  0  0  0
    2.7871   -5.9885   -2.5198 C   0  0  0  0  0  0  0  0  0  0  0  0
    2.8488   -7.2766   -2.9971 N   0  0  0  0  0  0  0  0  0  0  0  0
    2.5923   -8.1861   -1.9979 C   0  0  0  0  0  0  0  0  0  0  0  0
    2.3749   -7.4568   -0.8298 C   0  0  0  0  0  0  0  0  0  0  0  0
    2.0879   -8.1592    0.3591 C   0  0  0  0  0  0  0  0  0  0  0  0
    2.0253   -9.5572    0.3347 C   0  0  0  0  0  0  0  0  0  0  0  0
    2.2451  -10.2566   -0.8496 C   0  0  0  0  0  0  0  0  0  0  0  0
    2.5350   -9.5843   -2.0408 C   0  0  0  0  0  0  0  0  0  0  0  0
    0.9327    1.2274    0.7075 H   0  0  0  0  0  0  0  0  0  0  0  0
    0.5408    0.4612   -0.8265 H   0  0  0  0  0  0  0  0  0  0  0  0
   -0.5051   -0.7814    1.0190 H   0  0  0  0  0  0  0  0  0  0  0  0
    1.0426   -0.9450    1.8436 H   0  0  0  0  0  0  0  0  0  0  0  0
    0.2428   -2.1910   -0.8276 H   0  0  0  0  0  0  0  0  0  0  0  0
    0.4917   -3.0238    0.6938 H   0  0  0  0  0  0  0  0  0  0  0  0
    3.1389    0.1979    0.7580 H   0  0  0  0  0  0  0  0  0  0  0  0
    2.9341    1.0560   -0.7608 H   0  0  0  0  0  0  0  0  0  0  0  0
    4.0353   -1.2008   -0.9283 H   0  0  0  0  0  0  0  0  0  0  0  0
    2.8815   -0.1438   -2.8904 H   0  0  0  0  0  0  0  0  0  0  0  0
    1.4134   -1.0279   -2.4961 H   0  0  0  0  0  0  0  0  0  0  0  0
    4.1240   -2.1499   -3.3176 H   0  0  0  0  0  0  0  0  0  0  0  0
    2.5735   -2.3035   -4.1550 H   0  0  0  0  0  0  0  0  0  0  0  0
    3.1985   -4.7417   -4.2432 H   0  0  0  0  0  0  0  0  0  0  0  0
    2.8889   -2.4860    0.6964 H   0  0  0  0  0  0  0  0  0  0  0  0
    2.1587   -4.9192    0.6332 H   0  0  0  0  0  0  0  0  0  0  0  0
    3.0430   -7.5213   -3.9560 H   0  0  0  0  0  0  0  0  0  0  0  0
    1.9123   -7.6209    1.2854 H   0  0  0  0  0  0  0  0  0  0  0  0
    1.8006  -10.0996    1.2497 H   0  0  0  0  0  0  0  0  0  0  0  0
    2.1898  -11.3428   -0.8490 H   0  0  0  0  0  0  0  0  0  0  0  0
    2.7049  -10.1327   -2.9614 H   0  0  0  0  0  0  0  0  0  0  0  0
  1  2  1  0  0  0  0
  1  4  1  0  0  0  0
  1 22  1  0  0  0  0
  1 23  1  0  0  0  0
  2  3  1  0  0  0  0
  2 24  1  0  0  0  0
  2 25  1  0  0  0  0
  3 10  1  0  0  0  0
  3 26  1  0  0  0  0
  3 27  1  0  0  0  0
  4  5  1  0  0  0  0
  4 28  1  0  0  0  0
  4 29  1  0  0  0  0
  5  6  1  0  0  0  0
  5 10  1  0  0  0  0
  5 30  1  0  0  0  0
  6  7  1  0  0  0  0
  6 31  1  0  0  0  0
  6 32  1  0  0  0  0
  7  8  1  0  0  0  0
  7 33  1  0  0  0  0
  7 34  1  0  0  0  0
  8  9  1  0  0  0  0
  8 11  2  0  0  0  0
  9 14  2  0  0  0  0
  9 35  1  0  0  0  0
 10 11  1  0  0  0  0
 10 36  1  0  0  0  0
 11 12  1  0  0  0  0
 12 13  2  0  0  0  0
 12 37  1  0  0  0  0
 13 14  1  0  0  0  0
 13 17  1  0  0  0  0
 14 15  1  0  0  0  0
 15 16  1  0  0  0  0
 15 38  1  0  0  0  0
 16 17  1  0  0  0  0
 16 21  2  0  0  0  0
 17 18  2  0  0  0  0
 18 19  1  0  0  0  0
 18 39  1  0  0  0  0
 19 20  2  0  0  0  0
 19 40  1  0  0  0  0
 20 21  1  0  0  0  0
 20 41  1  0  0  0  0
 21 42  1  0  0  0  0
M  END
$$$$
